<?xml version='1.0' encoding='UTF-8'?>
<!-- generated on 2025-03-19 20:35:42 by Eclipse SUMO netconvert Version 1.22.0
<netconvertConfiguration xmlns:xsi="http://www.w3.org/2001/XMLSchema-instance" xsi:noNamespaceSchemaLocation="http://sumo.dlr.de/xsd/netconvertConfiguration.xsd">

    <input>
        <type-files value="/home/carla/Co-Simulation/Sumo/util/data/opendrive_netconvert.typ.xml"/>
        <opendrive-files value="CarlaUE4/Content/Carla/Maps/OpenDrive/Town04.xodr"/>
    </input>

    <output>
        <output-file value="/tmp/tmpzrg54r5o/Town04.net.xml"/>
        <output.original-names value="true"/>
    </output>

    <processing>
        <geometry.remove value="true"/>
        <geometry.min-radius.fix value="true"/>
    </processing>

    <tls_building>
        <tls.discard-loaded value="true"/>
    </tls_building>

    <junctions>
        <no-turnarounds.except-deadend value="true"/>
    </junctions>

    <formats>
        <opendrive.import-all-lanes value="true"/>
        <opendrive.curve-resolution value="1"/>
    </formats>

</netconvertConfiguration>
-->
<net xmlns:xsi="http://www.w3.org/2001/XMLSchema-instance" version="1.20" junctionCornerDetail="5" rectangularLaneCut="true" limitTurnSpeed="5.50" xsi:noNamespaceSchemaLocation="http://sumo.dlr.de/xsd/net_file.xsd">
  <location netOffset="503.02,423.76" convBoundary="0.00,0.00,897.92,800.65" origBoundary="0.000000,0.000000,0.000000,0.000000" projParameter="+proj=tmerc +lat_0=0 +lon_0=0 +k=1 +x_0=0 +y_0=0 +datum=WGS84 +units=m +geoidgrids=egm96_15.gtx +vunits=m +no_defs "/>
  <edge id=":1008_0" function="internal">
    <lane id=":1008_0_0" index="0" disallow="pedestrian tram rail_urban rail rail_electric rail_fast ship" speed="7.53" length="12.46" width="3.50" shape="757.82,553.48,0.02 757.30,550.27,0.02 755.77,548.00,0.02 753.21,546.67,0.02 749.64,546.27,0.02">
      <param key="origId" value="1012_1"/>
      <param key="signalID" value="1634 1636"/>
    </lane>
  </edge>
  <edge id=":1008_1" function="internal">
    <lane id=":1008_1_0" index="0" disallow="pedestrian tram rail_urban rail rail_electric rail_fast ship" speed="9.24" length="18.98" width="3.50" shape="757.82,553.48,0.02 758.59,548.72,0.02 760.94,545.30,0.02 764.87,543.20,0.02 770.37,542.43,0.02">
      <param key="origId" value="1024_1"/>
      <param key="signalID" value="1634"/>
    </lane>
  </edge>
  <edge id=":1008_2" function="internal">
    <lane id=":1008_2_0" index="0" disallow="all" speed="1.39" length="20.79" width="0.50" shape="770.46,547.93,0.02 749.67,548.27,0.02">
      <param key="origId" value="1043_2"/>
    </lane>
  </edge>
  <edge id=":1008_3" function="internal">
    <lane id=":1008_3_0" index="0" disallow="pedestrian tram rail_urban rail rail_electric rail_fast ship" speed="7.85" length="4.82" width="3.50" shape="770.43,545.93,0.02 766.43,546.46,0.02 765.72,546.82,0.02">
      <param key="origId" value="1028_1"/>
      <param key="signalID" value="1636"/>
    </lane>
  </edge>
  <edge id=":1008_4" function="internal">
    <lane id=":1008_4_0" index="0" disallow="pedestrian tram rail_urban rail rail_electric rail_fast ship" speed="13.89" length="20.79" width="3.50" shape="770.43,545.93,0.02 749.64,546.27,0.02">
      <param key="origId" value="1043_1"/>
      <param key="signalID" value="1634"/>
    </lane>
  </edge>
  <edge id=":1008_8" function="internal">
    <lane id=":1008_8_0" index="0" disallow="pedestrian tram rail_urban rail rail_electric rail_fast ship" speed="7.85" length="8.57" width="3.50" shape="765.72,546.82,0.02 763.59,547.89,0.02 761.88,550.23,0.02 761.32,553.47,0.02">
      <param key="origId" value="1028_1"/>
      <param key="signalID" value="1636"/>
    </lane>
  </edge>
  <edge id=":1008_5" function="internal">
    <lane id=":1008_5_0" index="0" disallow="all" speed="1.39" length="20.79" width="0.50" shape="749.55,540.77,0.02 770.34,540.43,0.02">
      <param key="origId" value="1044_-2"/>
      <param key="signalID" value="1636 1635"/>
    </lane>
    <lane id=":1008_5_1" index="1" disallow="pedestrian tram rail_urban rail rail_electric rail_fast ship" speed="13.89" length="20.79" width="3.50" shape="749.58,542.77,0.02 770.37,542.43,0.02">
      <param key="origId" value="1044_-1"/>
      <param key="signalID" value="1636 1635 1635"/>
    </lane>
  </edge>
  <edge id=":1008_7" function="internal">
    <lane id=":1008_7_0" index="0" disallow="pedestrian tram rail_urban rail rail_electric rail_fast ship" speed="8.96" length="18.16" width="3.50" shape="749.58,542.77,0.02 754.71,543.37,0.02 758.37,545.35,0.02 760.58,548.71,0.02 761.32,553.47,0.02">
      <param key="origId" value="1015_-1"/>
      <param key="signalID" value="1635"/>
    </lane>
  </edge>
  <edge id=":1061_0" function="internal">
    <lane id=":1061_0_0" index="0" disallow="all" speed="1.39" length="70.01" width="3.50" shape="539.90,293.64 532.28,303.25 526.80,317.45 523.46,336.25 522.26,359.65">
      <param key="origId" value="1080_3"/>
    </lane>
    <lane id=":1061_0_1" index="1" disallow="pedestrian tram rail_urban rail rail_electric rail_fast ship" speed="13.89" length="73.02" width="3.50" shape="537.64,290.96 529.48,301.13 523.61,315.96 520.04,335.46 518.76,359.63">
      <param key="origId" value="1080_2"/>
    </lane>
  </edge>
  <edge id=":1061_2" function="internal">
    <lane id=":1061_2_0" index="0" disallow="all" speed="1.39" length="77.15" width="3.50" shape="522.65,282.49 522.26,359.65">
      <param key="origId" value="1072_-5"/>
    </lane>
    <lane id=":1061_2_1" index="1" disallow="pedestrian tram rail_urban rail rail_electric rail_fast ship" speed="13.89" length="77.15" width="3.50" shape="519.15,282.48 518.76,359.63">
      <param key="origId" value="1072_-4"/>
    </lane>
    <lane id=":1061_2_2" index="2" disallow="pedestrian tram rail_urban rail rail_electric rail_fast ship" speed="13.89" length="77.15" width="3.50" shape="515.65,282.46 515.26,359.61">
      <param key="origId" value="1072_-3"/>
    </lane>
    <lane id=":1061_2_3" index="3" disallow="pedestrian tram rail_urban rail rail_electric rail_fast ship" speed="13.89" length="77.15" width="3.50" shape="512.15,282.44 511.76,359.59">
      <param key="origId" value="1072_-2"/>
    </lane>
    <lane id=":1061_2_4" index="4" disallow="pedestrian tram rail_urban rail rail_electric rail_fast ship" speed="13.89" length="77.15" width="3.50" shape="508.65,282.42 508.26,359.58">
      <param key="origId" value="1072_-1"/>
    </lane>
  </edge>
  <edge id=":1061_7" function="internal">
    <lane id=":1061_7_0" index="0" disallow="all" speed="1.39" length="69.92" width="3.50" shape="483.76,359.45 482.80,335.89,0.00 479.68,317.02,0.00 474.38,302.84,0.00 466.90,293.35,0.00">
      <param key="origId" value="1076_7"/>
    </lane>
  </edge>
  <edge id=":1061_8" function="internal">
    <lane id=":1061_8_0" index="0" disallow="all" speed="1.39" length="77.15" width="3.50" shape="483.76,359.45 484.15,282.30">
      <param key="origId" value="1073_7"/>
    </lane>
  </edge>
  <edge id=":1061_9" function="internal">
    <lane id=":1061_9_0" index="0" disallow="pedestrian tram rail_urban rail rail_electric rail_fast ship" speed="13.89" length="17.97" width="3.50" shape="487.26,359.47 486.50,341.51,0.00">
      <param key="origId" value="1076_6"/>
    </lane>
  </edge>
  <edge id=":1061_10" function="internal">
    <lane id=":1061_10_0" index="0" disallow="pedestrian tram rail_urban rail rail_electric rail_fast ship" speed="13.89" length="77.15" width="3.50" shape="487.26,359.47 487.65,282.32">
      <param key="origId" value="1073_6"/>
    </lane>
    <lane id=":1061_10_1" index="1" disallow="pedestrian tram rail_urban rail rail_electric rail_fast ship" speed="13.89" length="77.15" width="3.50" shape="490.76,359.49 491.15,282.33">
      <param key="origId" value="1073_5"/>
    </lane>
    <lane id=":1061_10_2" index="2" disallow="pedestrian tram rail_urban rail rail_electric rail_fast ship" speed="13.89" length="77.15" width="3.50" shape="494.26,359.51 494.65,282.35">
      <param key="origId" value="1073_4"/>
    </lane>
    <lane id=":1061_10_3" index="3" disallow="pedestrian tram rail_urban rail rail_electric rail_fast ship" speed="13.89" length="77.15" width="3.50" shape="497.76,359.52 498.15,282.37">
      <param key="origId" value="1073_3"/>
    </lane>
    <lane id=":1061_10_4" index="4" disallow="all" speed="1.39" length="77.15" width="3.50" shape="501.26,359.54 501.65,282.39">
      <param key="origId" value="1073_2"/>
    </lane>
    <lane id=":1061_10_5" index="5" disallow="all" speed="1.39" length="77.15" width="3.50" shape="504.76,359.56 505.15,282.40">
      <param key="origId" value="1073_1"/>
    </lane>
  </edge>
  <edge id=":1061_16" function="internal">
    <lane id=":1061_16_0" index="0" disallow="pedestrian tram rail_urban rail rail_electric rail_fast ship" speed="13.89" length="55.01" width="3.50" shape="486.50,341.51,0.00 486.23,335.12,0.00 482.87,315.54,0.00 477.17,300.72,0.00 469.15,290.66,0.00">
      <param key="origId" value="1076_6"/>
    </lane>
  </edge>
  <edge id=":1082_0" function="internal">
    <lane id=":1082_0_0" index="0" disallow="all" speed="1.39" length="55.99" width="3.50" shape="620.04,440.11,10.31 611.06,431.65,10.46 599.62,425.63,10.62 585.73,422.05,10.79 569.39,420.90,10.99">
      <param key="origId" value="1097_3"/>
    </lane>
    <lane id=":1082_0_1" index="1" disallow="pedestrian tram rail_urban rail rail_electric rail_fast ship" speed="13.89" length="59.13" width="3.50" shape="622.77,437.92,10.31 613.22,428.89,10.46 601.14,422.46,10.62 586.52,418.63,10.79 569.38,417.40,10.99">
      <param key="origId" value="1097_2"/>
    </lane>
  </edge>
  <edge id=":1082_2" function="internal">
    <lane id=":1082_2_0" index="0" disallow="all" speed="1.39" length="62.23" width="3.50" shape="631.70,420.25,10.05 569.39,420.90,10.99">
      <param key="origId" value="1091_-5"/>
    </lane>
    <lane id=":1082_2_1" index="1" disallow="pedestrian tram rail_urban rail rail_electric rail_fast ship" speed="13.89" length="62.23" width="3.50" shape="631.64,416.75,10.05 569.38,417.40,10.99">
      <param key="origId" value="1091_-4"/>
    </lane>
    <lane id=":1082_2_2" index="2" disallow="pedestrian tram rail_urban rail rail_electric rail_fast ship" speed="13.89" length="62.23" width="3.50" shape="631.58,413.25,10.05 569.36,413.90,10.99">
      <param key="origId" value="1091_-3"/>
    </lane>
    <lane id=":1082_2_3" index="3" disallow="pedestrian tram rail_urban rail rail_electric rail_fast ship" speed="13.89" length="62.23" width="3.50" shape="631.52,409.75,10.05 569.35,410.40,10.99">
      <param key="origId" value="1091_-2"/>
    </lane>
    <lane id=":1082_2_4" index="4" disallow="pedestrian tram rail_urban rail rail_electric rail_fast ship" speed="13.89" length="62.23" width="3.50" shape="631.46,406.25,10.05 569.33,406.91,10.99">
      <param key="origId" value="1091_-1"/>
    </lane>
  </edge>
  <edge id=":1082_7" function="internal">
    <lane id=":1082_7_0" index="0" disallow="all" speed="1.39" length="56.20" width="3.50" shape="569.23,382.41,10.99 585.91,381.10,10.68 599.86,377.33,10.41 611.10,371.10,10.17 619.60,362.40,9.95">
      <param key="origId" value="1101_7"/>
    </lane>
  </edge>
  <edge id=":1082_8" function="internal">
    <lane id=":1082_8_0" index="0" disallow="all" speed="1.39" length="61.82" width="3.50" shape="569.23,382.41,10.99 631.04,381.76,10.05">
      <param key="origId" value="1092_7"/>
    </lane>
  </edge>
  <edge id=":1082_9" function="internal">
    <lane id=":1082_9_0" index="0" disallow="pedestrian tram rail_urban rail rail_electric rail_fast ship" speed="13.89" length="12.33" width="3.50" shape="569.25,385.91,10.99 581.53,384.92,10.77">
      <param key="origId" value="1101_6"/>
    </lane>
  </edge>
  <edge id=":1082_10" function="internal">
    <lane id=":1082_10_0" index="0" disallow="pedestrian tram rail_urban rail rail_electric rail_fast ship" speed="13.89" length="61.97" width="3.50" shape="569.25,385.91,10.99 631.10,385.26,10.05">
      <param key="origId" value="1092_6"/>
    </lane>
    <lane id=":1082_10_1" index="1" disallow="pedestrian tram rail_urban rail rail_electric rail_fast ship" speed="13.89" length="61.97" width="3.50" shape="569.26,389.41,10.99 631.16,388.76,10.05">
      <param key="origId" value="1092_5"/>
    </lane>
    <lane id=":1082_10_2" index="2" disallow="pedestrian tram rail_urban rail rail_electric rail_fast ship" speed="13.89" length="61.97" width="3.50" shape="569.28,392.91,10.99 631.22,392.26,10.05">
      <param key="origId" value="1092_4"/>
    </lane>
    <lane id=":1082_10_3" index="3" disallow="pedestrian tram rail_urban rail rail_electric rail_fast ship" speed="13.89" length="61.97" width="3.50" shape="569.29,396.41,10.99 631.28,395.76,10.05">
      <param key="origId" value="1092_3"/>
    </lane>
    <lane id=":1082_10_4" index="4" disallow="all" speed="1.39" length="61.97" width="3.50" shape="569.31,399.91,10.99 631.34,399.26,10.05">
      <param key="origId" value="1092_2"/>
    </lane>
    <lane id=":1082_10_5" index="5" disallow="all" speed="1.39" length="61.97" width="3.50" shape="569.32,403.41,10.99 631.40,402.76,10.05">
      <param key="origId" value="1092_1"/>
    </lane>
  </edge>
  <edge id=":1082_16" function="internal">
    <lane id=":1082_16_0" index="0" disallow="pedestrian tram rail_urban rail rail_electric rail_fast ship" speed="13.89" length="47.18" width="3.50" shape="581.53,384.92,10.77 586.77,384.51,10.68 601.48,380.46,10.42 613.37,373.78,10.18 622.45,364.44,9.95">
      <param key="origId" value="1101_6"/>
    </lane>
  </edge>
  <edge id=":1103_0" function="internal">
    <lane id=":1103_0_0" index="0" disallow="pedestrian tram rail_urban rail rail_electric rail_fast ship" speed="8.33" length="14.93" width="3.50" shape="630.80,606.58,0.04 630.06,602.47,0.08 628.26,599.55,0.12 625.40,597.80,0.15 621.47,597.24,0.20">
      <param key="origId" value="1141_-1"/>
      <param key="signalID" value="1639"/>
    </lane>
  </edge>
  <edge id=":1103_1" function="internal">
    <lane id=":1103_1_0" index="0" disallow="pedestrian tram rail_urban rail rail_electric rail_fast ship" speed="9.63" length="21.54" width="3.50" shape="630.80,606.58,0.04 631.43,600.93,0.08 633.90,596.89,0.11 638.20,594.45,0.15 644.33,593.61,0.20">
      <param key="origId" value="1133_-1"/>
      <param key="signalID" value="1639"/>
    </lane>
  </edge>
  <edge id=":1103_2" function="internal">
    <lane id=":1103_2_0" index="0" disallow="all" speed="1.39" length="22.88" width="0.50" shape="644.36,599.11,0.20 621.48,599.24,0.20">
      <param key="origId" value="1115_2"/>
    </lane>
  </edge>
  <edge id=":1103_3" function="internal">
    <lane id=":1103_3_0" index="0" disallow="pedestrian tram rail_urban rail rail_electric rail_fast ship" speed="8.32" length="15.75" width="3.50" shape="644.35,597.11,0.20 639.80,597.71,0.15 636.61,599.47,0.11 634.77,602.37,0.08 634.29,606.43,0.04">
      <param key="origId" value="1122_1"/>
      <param key="signalID" value="1637"/>
    </lane>
  </edge>
  <edge id=":1103_4" function="internal">
    <lane id=":1103_4_0" index="0" disallow="pedestrian tram rail_urban rail rail_electric rail_fast ship" speed="13.89" length="22.88" width="3.50" shape="644.35,597.11,0.20 621.47,597.24,0.20">
      <param key="origId" value="1115_1"/>
      <param key="signalID" value="1637"/>
    </lane>
  </edge>
  <edge id=":1103_5" function="internal">
    <lane id=":1103_5_0" index="0" disallow="all" speed="1.39" length="22.88" width="0.50" shape="621.44,591.74,0.20 644.32,591.61,0.20">
      <param key="origId" value="1114_-2"/>
      <param key="signalID" value="1639 1638"/>
    </lane>
    <lane id=":1103_5_1" index="1" disallow="pedestrian tram rail_urban rail rail_electric rail_fast ship" speed="13.89" length="22.88" width="3.50" shape="621.45,593.74,0.20 644.33,593.61,0.20">
      <param key="origId" value="1114_-1"/>
      <param key="signalID" value="1639 1638 1638"/>
    </lane>
  </edge>
  <edge id=":1103_7" function="internal">
    <lane id=":1103_7_0" index="0" disallow="pedestrian tram rail_urban rail rail_electric rail_fast ship" speed="9.65" length="20.42" width="3.50" shape="621.45,593.74,0.20 626.86,594.51,0.15 630.81,596.88,0.12 633.28,600.85,0.08 634.29,606.43,0.04">
      <param key="origId" value="1148_-1"/>
      <param key="signalID" value="1638 1637"/>
    </lane>
  </edge>
  <edge id=":1159_0" function="internal">
    <lane id=":1159_0_0" index="0" disallow="all" speed="1.39" length="79.86" width="3.50" shape="502.28,725.66 490.72,704.14 480.02,685.93 470.10,670.54 460.85,657.48">
      <param key="origId" value="1162_7"/>
    </lane>
  </edge>
  <edge id=":1159_1" function="internal">
    <lane id=":1159_1_0" index="0" disallow="all" speed="1.39" length="82.71" width="3.50" shape="502.28,725.66 492.50,705.07 486.58,687.48 483.60,669.16 482.61,646.38">
      <param key="origId" value="1174_7"/>
    </lane>
  </edge>
  <edge id=":1159_2" function="internal">
    <lane id=":1159_2_0" index="0" disallow="pedestrian tram rail_urban rail rail_electric rail_fast ship" speed="13.89" length="80.62" width="3.50" shape="505.39,724.06 493.79,702.46 482.99,684.08 472.96,668.53 463.66,655.40">
      <param key="origId" value="1162_6"/>
    </lane>
    <lane id=":1159_2_1" index="1" disallow="pedestrian tram rail_urban rail rail_electric rail_fast ship" speed="13.89" length="80.62" width="3.50" shape="505.39,724.06 494.23,702.13 484.39,683.04 475.33,666.77 466.47,653.31">
      <param key="origId" value="1161_1"/>
    </lane>
  </edge>
  <edge id=":1159_4" function="internal">
    <lane id=":1159_4_0" index="0" disallow="pedestrian tram rail_urban rail rail_electric rail_fast ship" speed="13.89" length="81.12" width="3.50" shape="505.39,724.06 495.68,703.71 489.89,686.66 487.04,668.88 486.11,646.34">
      <param key="origId" value="1174_6"/>
    </lane>
    <lane id=":1159_4_1" index="1" disallow="pedestrian tram rail_urban rail rail_electric rail_fast ship" speed="13.89" length="79.52" width="3.50" shape="508.51,722.45 498.85,702.35 493.20,685.84 490.47,668.59 489.61,646.30">
      <param key="origId" value="1174_5"/>
    </lane>
    <lane id=":1159_4_2" index="2" disallow="pedestrian tram rail_urban rail rail_electric rail_fast ship" speed="13.89" length="77.92" width="3.50" shape="511.62,720.85 502.02,700.99 496.50,685.01 493.91,668.31 493.11,646.26">
      <param key="origId" value="1174_4"/>
    </lane>
    <lane id=":1159_4_3" index="3" disallow="pedestrian tram rail_urban rail rail_electric rail_fast ship" speed="13.89" length="76.33" width="3.50" shape="514.73,719.25 505.19,699.63 499.81,684.19 497.35,668.02 496.61,646.23">
      <param key="origId" value="1174_3"/>
    </lane>
    <lane id=":1159_4_4" index="4" disallow="all" speed="1.39" length="74.73" width="3.50" shape="517.84,717.65 508.37,698.28 503.11,683.37 500.79,667.74 500.11,646.19">
      <param key="origId" value="1174_2"/>
    </lane>
    <lane id=":1159_4_5" index="5" disallow="all" speed="1.39" length="73.14" width="3.50" shape="520.95,716.04 511.54,696.92 506.42,682.55 504.23,667.46 503.61,646.15">
      <param key="origId" value="1174_1"/>
    </lane>
  </edge>
  <edge id=":1159_10" function="internal">
    <lane id=":1159_10_0" index="0" disallow="all" speed="1.39" length="67.86" width="3.50" shape="521.11,645.95 522.03,663.07 524.62,678.03 529.32,692.47 536.51,708.03">
      <param key="origId" value="1173_-5"/>
    </lane>
    <lane id=":1159_10_1" index="1" disallow="pedestrian tram rail_urban rail rail_electric rail_fast ship" speed="13.89" length="67.86" width="3.50" shape="517.61,645.99 518.59,663.35 521.32,678.85 526.14,693.83 533.40,709.63">
      <param key="origId" value="1173_-4"/>
    </lane>
    <lane id=":1159_10_2" index="2" disallow="pedestrian tram rail_urban rail rail_electric rail_fast ship" speed="13.89" length="67.86" width="3.50" shape="514.11,646.03 515.15,663.64 518.01,679.67 522.97,695.19 530.29,711.24">
      <param key="origId" value="1173_-3"/>
    </lane>
    <lane id=":1159_10_3" index="3" disallow="pedestrian tram rail_urban rail rail_electric rail_fast ship" speed="13.89" length="67.86" width="3.50" shape="510.61,646.07 511.71,663.92 514.71,680.49 519.80,696.54 527.18,712.84">
      <param key="origId" value="1173_-2"/>
    </lane>
    <lane id=":1159_10_4" index="4" disallow="pedestrian tram rail_urban rail rail_electric rail_fast ship" speed="13.89" length="67.86" width="3.50" shape="507.11,646.11 508.27,664.21 511.40,681.31 516.63,697.90 524.06,714.44">
      <param key="origId" value="1173_-1"/>
    </lane>
  </edge>
  <edge id=":1176_0" function="internal">
    <lane id=":1176_0_0" index="0" disallow="all" speed="1.39" length="43.52" width="3.50" shape="435.42,421.40,9.84 423.62,422.48,9.69 413.29,425.67,9.55 404.41,430.99,9.42 396.99,438.43,9.29">
      <param key="origId" value="1191_-5"/>
    </lane>
  </edge>
  <edge id=":1176_1" function="internal">
    <lane id=":1176_1_0" index="0" disallow="all" speed="1.39" length="53.21" width="3.50" shape="435.42,421.40,9.84 382.22,421.47,8.75">
      <param key="origId" value="1184_-5"/>
    </lane>
  </edge>
  <edge id=":1176_2" function="internal">
    <lane id=":1176_2_0" index="0" disallow="pedestrian tram rail_urban rail rail_electric rail_fast ship" speed="13.89" length="9.44" width="3.50" shape="435.41,417.90,9.84 426.01,418.77,9.73">
      <param key="origId" value="1191_-4"/>
    </lane>
  </edge>
  <edge id=":1176_3" function="internal">
    <lane id=":1176_3_0" index="0" disallow="pedestrian tram rail_urban rail rail_electric rail_fast ship" speed="13.89" length="53.21" width="3.50" shape="435.41,417.90,9.84 382.21,417.97,8.75">
      <param key="origId" value="1184_-4"/>
    </lane>
    <lane id=":1176_3_1" index="1" disallow="pedestrian tram rail_urban rail rail_electric rail_fast ship" speed="13.89" length="53.21" width="3.50" shape="435.41,414.40,9.84 382.21,414.47,8.75">
      <param key="origId" value="1184_-3"/>
    </lane>
    <lane id=":1176_3_2" index="2" disallow="pedestrian tram rail_urban rail rail_electric rail_fast ship" speed="13.89" length="53.21" width="3.50" shape="435.41,410.90,9.84 382.21,410.97,8.75">
      <param key="origId" value="1184_-2"/>
    </lane>
    <lane id=":1176_3_3" index="3" disallow="pedestrian tram rail_urban rail rail_electric rail_fast ship" speed="13.89" length="53.21" width="3.50" shape="435.40,407.40,9.84 382.20,407.47,8.75">
      <param key="origId" value="1184_-1"/>
    </lane>
  </edge>
  <edge id=":1176_16" function="internal">
    <lane id=":1176_16_0" index="0" disallow="pedestrian tram rail_urban rail rail_electric rail_fast ship" speed="13.89" length="37.24" width="3.50" shape="426.01,418.77,9.73 422.81,419.06,9.69 411.74,422.51,9.55 402.22,428.24,9.42 394.24,436.26,9.29">
      <param key="origId" value="1191_-4"/>
    </lane>
  </edge>
  <edge id=":1176_7" function="internal">
    <lane id=":1176_7_0" index="0" disallow="all" speed="1.39" length="47.08" width="3.50" shape="393.16,365.66,8.70 401.29,373.21,8.97 411.04,378.61,9.24 422.40,381.84,9.53 435.37,382.90,9.84">
      <param key="origId" value="1194_3"/>
    </lane>
    <lane id=":1176_7_1" index="1" disallow="pedestrian tram rail_urban rail rail_electric rail_fast ship" speed="13.89" length="50.12" width="3.50" shape="390.49,367.92,8.70 399.18,376.02,8.97 409.56,381.80,9.24 421.62,385.26,9.53 435.37,386.40,9.84">
      <param key="origId" value="1194_2"/>
    </lane>
  </edge>
  <edge id=":1176_9" function="internal">
    <lane id=":1176_9_0" index="0" disallow="all" speed="1.39" length="53.21" width="3.50" shape="382.17,382.97,8.75 435.37,382.90,9.84">
      <param key="origId" value="1185_7"/>
    </lane>
    <lane id=":1176_9_1" index="1" disallow="pedestrian tram rail_urban rail rail_electric rail_fast ship" speed="13.89" length="53.21" width="3.50" shape="382.17,386.47,8.75 435.37,386.40,9.84">
      <param key="origId" value="1185_6"/>
    </lane>
    <lane id=":1176_9_2" index="2" disallow="pedestrian tram rail_urban rail rail_electric rail_fast ship" speed="13.89" length="53.21" width="3.50" shape="382.18,389.97,8.75 435.38,389.90,9.84">
      <param key="origId" value="1185_5"/>
    </lane>
    <lane id=":1176_9_3" index="3" disallow="pedestrian tram rail_urban rail rail_electric rail_fast ship" speed="13.89" length="53.21" width="3.50" shape="382.18,393.47,8.75 435.38,393.40,9.84">
      <param key="origId" value="1185_4"/>
    </lane>
    <lane id=":1176_9_4" index="4" disallow="pedestrian tram rail_urban rail rail_electric rail_fast ship" speed="13.89" length="53.21" width="3.50" shape="382.19,396.97,8.75 435.39,396.90,9.84">
      <param key="origId" value="1185_3"/>
    </lane>
    <lane id=":1176_9_5" index="5" disallow="all" speed="1.39" length="53.21" width="3.50" shape="382.19,400.47,8.75 435.39,400.40,9.84">
      <param key="origId" value="1185_2"/>
    </lane>
    <lane id=":1176_9_6" index="6" disallow="all" speed="1.39" length="53.21" width="3.50" shape="382.20,403.97,8.75 435.40,403.90,9.84">
      <param key="origId" value="1185_1"/>
    </lane>
  </edge>
  <edge id=":1197_0" function="internal">
    <lane id=":1197_0_0" index="0" disallow="pedestrian tram rail_urban rail rail_electric rail_fast ship" speed="8.43" length="15.77" width="3.50" shape="561.67,606.45,0.03 560.99,602.57,0.07 558.97,599.81,0.11 555.63,598.17,0.15 550.97,597.64,0.20">
      <param key="origId" value="1239_-1"/>
      <param key="signalID" value="1640 1641"/>
    </lane>
  </edge>
  <edge id=":1197_1" function="internal">
    <lane id=":1197_1_0" index="0" disallow="pedestrian tram rail_urban rail rail_electric rail_fast ship" speed="10.07" length="22.98" width="3.50" shape="561.67,606.45,0.03 562.64,601.03,0.07 565.63,597.15,0.11 570.63,594.80,0.15 577.64,593.99,0.20">
      <param key="origId" value="1217_-1"/>
      <param key="signalID" value="1641"/>
    </lane>
  </edge>
  <edge id=":1197_2" function="internal">
    <lane id=":1197_2_0" index="0" disallow="all" speed="1.39" length="26.69" width="0.50" shape="577.67,599.49,0.20 550.98,599.64,0.20">
      <param key="origId" value="1210_2"/>
    </lane>
  </edge>
  <edge id=":1197_3" function="internal">
    <lane id=":1197_3_0" index="0" disallow="pedestrian tram rail_urban rail rail_electric rail_fast ship" speed="8.82" length="6.18" width="3.50" shape="577.66,597.49,0.20 572.18,598.07,0.14 571.56,598.34,0.14">
      <param key="origId" value="1225_1"/>
      <param key="signalID" value="1640"/>
    </lane>
  </edge>
  <edge id=":1197_4" function="internal">
    <lane id=":1197_4_0" index="0" disallow="pedestrian tram rail_urban rail rail_electric rail_fast ship" speed="13.89" length="26.69" width="3.50" shape="577.66,597.49,0.20 550.97,597.64,0.20">
      <param key="origId" value="1210_1"/>
      <param key="signalID" value="1640"/>
    </lane>
  </edge>
  <edge id=":1197_8" function="internal">
    <lane id=":1197_8_0" index="0" disallow="pedestrian tram rail_urban rail rail_electric rail_fast ship" speed="8.82" length="11.18" width="3.50" shape="571.56,598.34,0.14 568.27,599.76,0.10 565.93,602.54,0.07 565.17,606.43,0.03">
      <param key="origId" value="1225_1"/>
      <param key="signalID" value="1640"/>
    </lane>
  </edge>
  <edge id=":1197_5" function="internal">
    <lane id=":1197_5_0" index="0" disallow="all" speed="1.39" length="26.69" width="0.50" shape="550.94,592.14,0.20 577.63,591.99,0.20">
      <param key="origId" value="1209_-2"/>
      <param key="signalID" value="1641 1642"/>
    </lane>
    <lane id=":1197_5_1" index="1" disallow="pedestrian tram rail_urban rail rail_electric rail_fast ship" speed="13.89" length="26.69" width="3.50" shape="550.95,594.14,0.20 577.64,593.99,0.20">
      <param key="origId" value="1209_-1"/>
      <param key="signalID" value="1641 1642 1642"/>
    </lane>
  </edge>
  <edge id=":1197_7" function="internal">
    <lane id=":1197_7_0" index="0" disallow="pedestrian tram rail_urban rail rail_electric rail_fast ship" speed="9.74" length="21.41" width="3.50" shape="550.95,594.14,0.20 557.14,594.88,0.15 561.58,597.17,0.11 564.26,601.02,0.08 565.17,606.43,0.03">
      <param key="origId" value="1232_-1"/>
      <param key="signalID" value="1642"/>
    </lane>
  </edge>
  <edge id=":1249_0" function="internal">
    <lane id=":1249_0_0" index="0" disallow="all" speed="1.39" length="19.76" width="0.50" shape="849.51,603.29,0.00 849.25,583.54,0.00">
      <param key="origId" value="1360_2"/>
    </lane>
  </edge>
  <edge id=":1249_1" function="internal">
    <lane id=":1249_1_0" index="0" disallow="pedestrian tram rail_urban rail rail_electric rail_fast ship" speed="7.78" length="13.19" width="3.50" shape="851.51,603.27,0.00 850.91,600.06,0.05 849.20,597.78,0.09 846.39,596.42,0.14 842.46,595.98,0.20">
      <param key="origId" value="1297_1"/>
      <param key="signalID" value="1644"/>
    </lane>
  </edge>
  <edge id=":1249_2" function="internal">
    <lane id=":1249_2_0" index="0" disallow="pedestrian tram rail_urban rail rail_electric rail_fast ship" speed="13.89" length="19.76" width="3.50" shape="851.51,603.27,0.00 851.25,583.51,0.00">
      <param key="origId" value="1360_1"/>
      <param key="signalID" value="1644"/>
    </lane>
  </edge>
  <edge id=":1249_3" function="internal">
    <lane id=":1249_3_0" index="0" disallow="pedestrian tram rail_urban rail rail_electric rail_fast ship" speed="8.81" length="17.44" width="3.50" shape="851.51,603.27,0.00 852.13,598.52,0.06 854.11,595.12,0.10 857.47,593.07,0.14 862.20,592.37,0.20">
      <param key="origId" value="1327_1"/>
      <param key="signalID" value="1646 1643"/>
    </lane>
  </edge>
  <edge id=":1249_4" function="internal">
    <lane id=":1249_4_0" index="0" disallow="all" speed="1.39" length="19.76" width="0.50" shape="862.23,597.87,0.20 842.48,597.98,0.20">
      <param key="origId" value="1263_2"/>
    </lane>
  </edge>