[General]
network = artery.envmod.World

cmdenv-express-mode = true
cmdenv-autoflush = true
debug-on-errors = true
print-undisposed = true
**.cmdenv-log-level = off

**.scalar-recording = false
**.vector-recording = false
**.wlan[*].**.statistic-recording = false

warmup-period = 30s
sim-time-limit = 60s
*.traci.core.startTime = 25s
*.traci.core.version = -1
*.traci.launcher.typename = "PosixLauncher"
*.traci.launcher.seed = 23423
*.traci.launcher.sumocfg = "grid_scenario.sumocfg"
*.traci.launcher.sumo = "sumo-gui"
*.traci.nodes.typename = "InsertionDelayNodeManager"
*.traci.mapper.typename = "traci.MultiTypeModuleMapper"
*.traci.mapper.vehicleTypes = xmldoc("vehicles.xml")
*.traci.nodes.destroyVehiclesOnCrash = true

*.staticNodes.nodes = xmldoc("grid_5x5/RSUs.xml")

*.withPhysicalEnvironment = true
*.physicalEnvironment.groundType = "FlatGround"

*.radioMedium.pathLossType = "Gemv2"
*.radioMedium.pathLoss.withSmallScaleVariations = false

**.identityRegistryModule = "idRegistry"

*.node[*].numRadios = 1
*.node[*].wlan[*].radio.transmitter.power = 200 mW
*.node[*].middleware.datetime = "2018-03-19 10:00:00"
*.node[*].middleware.services = xmldoc("services.xml")

*.rsu*.wlan[*].radio.transmitter.power = 47.9 mW
*.rsu*.middleware.datetime = "2018-03-19 10:00:00"
*.rsu*.middleware.services = xmldoc("rsuservices.xml")


[Config omnidirectional]
*.rsu*.wlan[*].radio.antennaType = "ConstantGainAntenna"
*.rsu*.wlan[*].radio.antenna.gain = 10dB


[Config directional]
*.staticNodes.directionalAntennas = true
*.rsu*.wlan[*].radio.antennaType = "ParabolicAntenna"
*.rsu*.wlan[*].radio.antenna.beamWidth = 35deg
*.rsu*.wlan[*].radio.antenna.maxGain = 10dB
*.rsu*.wlan[*].radio.antenna.minGain = -50dB


[Config rsu_sensors]
*.rsu*.environmentModel.*.drawSensorCone = true
*.rsu*.environmentModel.*.drawLinesOfSight = true
*.rsu*.environmentModel.*.drawDetectedObjects = true
*.rsu*.environmentModel.*.drawBlockingObstacles = true
*.rsu*.environmentModel.sensors = xmldoc("rsusensors.xml")
*.rsu*.environmentModel.Radar.fovRange = 200m
*.rsu*.environmentModel.Radar.fovAngle = 20.0
*.rsu*.environmentModel.SeeThrough.fovRange = 50m


[Config no_gui]
*.traci.launcher.sumo = "sumo"

[Config directional_test]
extends = directional, no_gui
warmup-period = 26s
sim-time-limit = 28s

[Config omnidirectional_test]
extends = omnidirectional, no_gui
warmup-period = 26s
sim-time-limit = 28s

[Config rsu_sensors_test]
extends = rsu_sensors, no_gui
warmup-period = 26s
sim-time-limit = 28s
