<?xml version="1.0" encoding="UTF-8"?>

<!-- generated on 2025-05-25 19:55:18 by Eclipse SUMO netedit Version 1.21.0
<neteditConfiguration xmlns:xsi="http://www.w3.org/2001/XMLSchema-instance" xsi:noNamespaceSchemaLocation="http://sumo.dlr.de/xsd/neteditConfiguration.xsd">

    <input>
        <sumocfg-file value="/workspaces/artery/scenarios/python-service/limassol.sumocfg"/>
        <additional-files value=""/>
        <route-files value="/workspaces/artery/scenarios/python-service/limassol.rou.xml"/>
        <sumo-net-file value="/workspaces/artery/scenarios/python-service/limassol.net.xml"/>
    </input>

    <output>
        <output-file value="/workspaces/artery/scenarios/python-service/limassol.net.xml"/>
    </output>

    <processing>
        <geometry.min-radius.fix.railways value="false"/>
        <geometry.max-grade.fix value="false"/>
        <offset.disable-normalization value="true"/>
        <lefthand value="1"/>
    </processing>

    <junctions>
        <no-turnarounds value="true"/>
        <junctions.corner-detail value="5"/>
        <junctions.limit-turn-speed value="5.50"/>
        <rectangular-lane-cut value="0"/>
    </junctions>

    <pedestrian>
        <walkingareas value="0"/>
    </pedestrian>

    <netedit>
        <ignore.routeelements value="false"/>
    </netedit>

</neteditConfiguration>
-->

<net version="1.20" junctionCornerDetail="5" lefthand="true" limitTurnSpeed="5.50" xmlns:xsi="http://www.w3.org/2001/XMLSchema-instance" xsi:noNamespaceSchemaLocation="http://sumo.dlr.de/xsd/net_file.xsd">

    <location netOffset="-503968.68,-3836666.92" convBoundary="0.00,0.00,797.63,1274.09" origBoundary="33.043319,34.671964,33.052033,34.683450" projParameter="+proj=utm +zone=36 +ellps=WGS84 +datum=WGS84 +units=m +no_defs"/>

    <type id="highway.cycleway" priority="1" numLanes="1" speed="5.56" allow="bicycle" oneway="0" width="2.00"/>
    <type id="highway.footway" priority="1" numLanes="1" speed="2.78" allow="pedestrian" oneway="1" width="2.00"/>
    <type id="highway.pedestrian" priority="1" numLanes="1" speed="2.78" allow="pedestrian" oneway="1" width="2.00"/>
    <type id="highway.primary" priority="12" numLanes="2" speed="27.78" disallow="tram rail_urban rail rail_electric rail_fast ship container cable_car subway aircraft wheelchair scooter drone" oneway="0"/>
    <type id="highway.residential" priority="3" numLanes="1" speed="13.89" disallow="tram rail_urban rail rail_electric rail_fast ship container cable_car subway aircraft wheelchair scooter drone" oneway="0"/>
    <type id="highway.service" priority="1" numLanes="1" speed="5.56" allow="pedestrian delivery bicycle" oneway="0"/>
    <type id="highway.tertiary" priority="10" numLanes="1" speed="22.22" disallow="tram rail_urban rail rail_electric rail_fast ship container cable_car subway aircraft wheelchair scooter drone" oneway="0"/>

    <edge id=":11199607353_0" function="internal">
        <lane id=":11199607353_0_0" index="0" allow="pedestrian delivery bicycle" speed="9.72" length="1.54" shape="225.71,543.14 224.30,542.53"/>
    </edge>
    <edge id=":11199607353_1" function="internal">
        <lane id=":11199607353_1_0" index="0" disallow="tram rail_urban rail rail_electric rail_fast ship container cable_car subway aircraft wheelchair scooter drone" speed="13.89" length="0.31" shape="224.15,542.80 224.30,542.53"/>
    </edge>
    <edge id=":11199607353_2" function="internal">
        <lane id=":11199607353_2_0" index="0" allow="pedestrian delivery bicycle" speed="4.25" length="3.33" shape="224.15,542.80 224.01,542.38 223.16,542.29 222.06,542.28 221.14,542.11"/>
    </edge>
    <edge id=":11199607354_0" function="internal">
        <lane id=":11199607354_0_0" index="0" allow="pedestrian delivery bicycle" speed="3.65" length="4.67" shape="213.08,538.02 211.65,538.19 210.93,538.73 210.93,539.62 211.64,540.88"/>
    </edge>
    <edge id=":11227813021_0" function="internal">
        <lane id=":11227813021_0_0" index="0" allow="pedestrian delivery bicycle" speed="4.75" length="4.93" shape="298.36,495.57 297.46,494.63 297.18,493.63 297.51,492.56 298.46,491.44"/>
    </edge>
    <edge id=":11227813021_1" function="internal">
        <lane id=":11227813021_1_0" index="0" allow="pedestrian delivery bicycle" speed="3.65" length="4.67" shape="298.36,495.57 296.92,495.49 296.12,495.89 295.96,496.77 296.44,498.13"/>
    </edge>
    <edge id=":11227813021_2" function="internal">
        <lane id=":11227813021_2_0" index="0" allow="pedestrian delivery bicycle" speed="5.57" length="5.45" shape="291.47,497.89 292.57,497.18 293.76,496.99 295.05,497.30 296.44,498.13"/>
    </edge>
    <edge id=":11227813021_3" function="internal">
        <lane id=":11227813021_3_0" index="0" disallow="tram rail_urban rail rail_electric rail_fast ship container cable_car subway aircraft wheelchair scooter drone" speed="13.89" length="9.51" shape="291.47,497.89 298.46,491.44"/>
    </edge>
    <edge id=":11227829255_0" function="internal">
        <lane id=":11227829255_0_0" index="0" allow="pedestrian delivery bicycle" speed="3.65" length="4.67" shape="180.46,338.77 180.03,340.15 180.23,341.02 181.05,341.39 182.48,341.25"/>
    </edge>
    <edge id=":11227829257_0" function="internal">
        <lane id=":11227829257_0_0" index="0" allow="pedestrian delivery bicycle" speed="5.08" length="4.98" shape="214.33,336.83 213.19,337.56 212.08,337.76 211.00,337.43 209.94,336.57"/>
    </edge>
    <edge id=":11227829257_1" function="internal">
        <lane id=":11227829257_1_0" index="0" disallow="tram rail_urban rail rail_electric rail_fast ship container cable_car subway aircraft wheelchair scooter drone" speed="8.33" length="9.32" shape="214.33,336.83 207.46,343.12"/>
    </edge>
    <edge id=":11227829257_2" function="internal">
        <lane id=":11227829257_2_0" index="0" allow="pedestrian delivery bicycle" speed="5.06" length="4.97" shape="207.59,338.74 208.36,339.86 208.60,340.96 208.30,342.05 207.46,343.12"/>
    </edge>
    <edge id=":11227829257_3" function="internal">
        <lane id=":11227829257_3_0" index="0" allow="pedestrian delivery bicycle" speed="3.65" length="4.67" shape="207.59,338.74 208.99,339.08 209.85,338.83 210.17,337.99 209.94,336.57"/>
    </edge>
    <edge id=":12531603513_0" function="internal">
        <lane id=":12531603513_0_0" index="0" disallow="tram rail_urban rail rail_electric rail_fast ship container cable_car subway aircraft wheelchair scooter drone" speed="13.89" length="4.93" shape="124.04,552.54 128.24,555.14"/>
    </edge>
    <edge id=":218692097_0" function="internal">
        <lane id=":218692097_0_0" index="0" disallow="tram rail_urban rail rail_electric rail_fast ship container cable_car subway aircraft wheelchair scooter drone" speed="8.33" length="5.07" shape="237.44,316.71 233.63,320.06"/>
    </edge>
    <edge id=":218693866_0" function="internal">
        <lane id=":218693866_0_0" index="0" disallow="tram rail_urban rail rail_electric rail_fast ship container cable_car subway aircraft wheelchair scooter drone" speed="6.24" length="9.05" shape="386.51,499.59 388.33,497.84 390.21,497.17 392.16,497.61 394.18,499.13"/>
    </edge>
    <edge id=":218693866_1" function="internal">
        <lane id=":218693866_1_0" index="0" disallow="tram rail_urban rail rail_electric rail_fast ship container cable_car subway aircraft wheelchair scooter drone" speed="22.22" length="11.15" shape="386.54,491.00 394.18,499.13"/>
    </edge>
    <edge id=":222023622_0" function="internal">
        <lane id=":222023622_0_0" index="0" disallow="tram rail_urban rail rail_electric rail_fast ship container cable_car subway aircraft wheelchair scooter drone" speed="6.34" length="9.04" shape="377.53,602.60 376.09,604.65 374.36,605.69 372.35,605.72 370.04,604.73"/>
    </edge>
    <edge id=":222023622_1" function="internal">
        <lane id=":222023622_1_0" index="0" disallow="tram rail_urban rail rail_electric rail_fast ship container cable_car subway aircraft wheelchair scooter drone" speed="13.89" length="11.36" shape="377.53,602.60 376.07,605.43 374.88,607.62 373.60,609.77 371.89,612.46"/>
    </edge>
    <edge id=":222023632_0" function="internal">
        <lane id=":222023632_0_0" index="0" disallow="tram rail_urban rail rail_electric rail_fast ship container cable_car subway aircraft wheelchair scooter drone" speed="6.51" length="8.80" shape="341.53,451.62 343.51,450.26 345.46,449.83 347.39,450.34 349.31,451.79"/>
    </edge>
    <edge id=":222023632_1" function="internal">
        <lane id=":222023632_1_0" index="0" disallow="tram rail_urban rail rail_electric rail_fast ship container cable_car subway aircraft wheelchair scooter drone" speed="22.22" length="10.73" shape="342.20,443.77 344.12,446.18 345.59,447.92 347.14,449.59 349.31,451.79"/>
    </edge>
    <edge id=":267797049_0" function="internal">
        <lane id=":267797049_0_0" index="0" disallow="tram rail_urban rail rail_electric rail_fast ship container cable_car subway aircraft wheelchair scooter drone" speed="13.89" length="11.10" shape="272.79,515.46 280.79,507.77"/>
    </edge>
    <edge id=":267797049_1" function="internal">
        <lane id=":267797049_1_0" index="0" disallow="tram rail_urban rail rail_electric rail_fast ship container cable_car subway aircraft wheelchair scooter drone" speed="6.51" length="9.00" shape="272.79,515.46 274.27,513.49 274.76,511.51 274.28,509.54 272.81,507.56"/>
    </edge>
    <edge id=":267797050_0" function="internal">
        <lane id=":267797050_0_0" index="0" disallow="tram rail_urban rail rail_electric rail_fast ship container cable_car subway aircraft wheelchair scooter drone" speed="8.33" length="10.95" shape="160.57,390.01 153.12,398.04"/>
    </edge>
    <edge id=":267797050_1" function="internal">
        <lane id=":267797050_1_0" index="0" disallow="tram rail_urban rail rail_electric rail_fast ship container cable_car subway aircraft wheelchair scooter drone" speed="6.51" length="8.94" shape="160.99,398.01 159.02,396.57 157.05,396.09 155.08,396.58 153.12,398.04"/>
    </edge>
    <edge id=":267797086_0" function="internal">
        <lane id=":267797086_0_0" index="0" disallow="tram rail_urban rail rail_electric rail_fast ship container cable_car subway aircraft wheelchair scooter drone" speed="22.22" length="7.03" shape="316.62,411.34 321.02,416.83"/>
    </edge>
    <edge id=":267797089_0" function="internal">
        <lane id=":267797089_0_0" index="0" disallow="tram rail_urban rail rail_electric rail_fast ship container cable_car subway aircraft wheelchair scooter drone" speed="13.89" length="6.97" shape="244.82,479.23 239.84,474.36"/>
    </edge>
    <edge id=":267875061_0" function="internal">
        <lane id=":267875061_0_0" index="0" disallow="tram rail_urban rail rail_electric rail_fast ship container cable_car subway aircraft wheelchair scooter drone" speed="6.53" length="8.82" shape="406.89,504.24 405.42,506.15 404.88,508.09 405.28,510.05 406.61,512.04"/>
    </edge>
    <edge id=":267875061_1" function="internal">
        <lane id=":267875061_1_0" index="0" disallow="tram rail_urban rail rail_electric rail_fast ship container cable_car subway aircraft wheelchair scooter drone" speed="22.22" length="10.83" shape="399.17,504.18 406.61,512.04"/>
    </edge>
    <edge id=":267875120_0" function="internal">
        <lane id=":267875120_0_0" index="0" disallow="tram rail_urban rail rail_electric rail_fast ship container cable_car subway aircraft wheelchair scooter drone" speed="6.26" length="9.05" shape="234.23,524.30 235.74,522.28 237.50,521.32 239.49,521.42 241.73,522.58"/>
    </edge>
    <edge id=":267875120_1" function="internal">
        <lane id=":267875120_1_0" index="0" disallow="tram rail_urban rail rail_electric rail_fast ship container cable_car subway aircraft wheelchair scooter drone" speed="13.89" length="11.41" shape="232.05,516.56 234.86,518.08 237.02,519.36 239.13,520.74 241.73,522.58"/>
    </edge>
    <edge id=":268528555_0" function="internal">
        <lane id=":268528555_0_0" index="0" disallow="tram rail_urban rail rail_electric rail_fast ship container cable_car subway aircraft wheelchair scooter drone" speed="3.65" length="4.67" shape="796.04,1274.30 796.99,1275.38 797.84,1275.68 798.58,1275.18 799.22,1273.88"/>
    </edge>
    <edge id=":3099210680_0" function="internal">
        <lane id=":3099210680_0_0" index="0" allow="bicycle" speed="2.89" length="2.92" width="2.00" shape="720.65,699.67 721.46,700.06 722.02,700.02 722.32,699.55 722.37,698.65"/>
    </edge>
    <edge id=":3099210683_0" function="internal">
        <lane id=":3099210683_0_0" index="0" allow="bicycle" speed="5.56" length="5.14" width="2.00" shape="600.21,538.26 596.65,534.56"/>
    </edge>
    <edge id=":3099210683_1" function="internal">
        <lane id=":3099210683_1_0" index="0" allow="bicycle" speed="2.89" length="1.27" width="2.00" shape="600.21,538.26 599.33,538.07 598.97,538.18"/>
    </edge>
    <edge id=":3099210683_4" function="internal">
        <lane id=":3099210683_4_0" index="0" allow="bicycle" speed="2.89" length="1.65" width="2.00" shape="598.97,538.18 598.79,538.23 598.60,538.76 598.76,539.64"/>
    </edge>
    <edge id=":3099210683_2" function="internal">
        <lane id=":3099210683_2_0" index="0" allow="bicycle" speed="5.56" length="5.13" width="2.00" shape="595.21,535.94 598.76,539.64"/>
    </edge>
    <edge id=":3099210683_3" function="internal">
        <lane id=":3099210683_3_0" index="0" allow="bicycle" speed="2.89" length="1.27" width="2.00" shape="595.21,535.94 596.09,536.14 596.44,536.03"/>
    </edge>
    <edge id=":3099210683_5" function="internal">
        <lane id=":3099210683_5_0" index="0" allow="bicycle" speed="2.89" length="1.65" width="2.00" shape="596.44,536.03 596.62,535.97 596.81,535.44 596.65,534.56"/>
    </edge>
    <edge id=":3099210687_0" function="internal">
        <lane id=":3099210687_0_0" index="0" allow="bicycle" speed="5.56" length="5.56" width="2.00" shape="346.19,306.51 342.18,302.67"/>
    </edge>
    <edge id=":3099210687_1" function="internal">
        <lane id=":3099210687_1_0" index="0" allow="bicycle" speed="2.89" length="1.32" width="2.00" shape="346.19,306.51 345.31,306.33 344.91,306.46"/>
    </edge>
    <edge id=":3099210687_4" function="internal">
        <lane id=":3099210687_4_0" index="0" allow="bicycle" speed="2.89" length="1.60" width="2.00" shape="344.91,306.46 344.78,306.50 344.60,307.03 344.77,307.91"/>
    </edge>
    <edge id=":3099210687_2" function="internal">
        <lane id=":3099210687_2_0" index="0" allow="bicycle" speed="5.56" length="5.42" width="2.00" shape="340.85,304.16 344.77,307.91"/>
    </edge>
    <edge id=":3099210687_3" function="internal">
        <lane id=":3099210687_3_0" index="0" allow="bicycle" speed="2.89" length="1.21" width="2.00" shape="340.85,304.16 341.74,304.29 342.03,304.17"/>
    </edge>
    <edge id=":3099210687_5" function="internal">
        <lane id=":3099210687_5_0" index="0" allow="bicycle" speed="2.89" length="1.71" width="2.00" shape="342.03,304.17 342.26,304.08 342.40,303.54 342.18,302.67"/>
    </edge>
    <edge id=":314943253_0" function="internal">
        <lane id=":314943253_0_0" index="0" disallow="tram rail_urban rail rail_electric rail_fast ship container cable_car subway aircraft wheelchair scooter drone" speed="6.41" length="9.04" shape="334.54,583.14 332.62,581.55 331.70,579.75 331.78,577.72 332.85,575.48"/>
    </edge>
    <edge id=":314943253_1" function="internal">
        <lane id=":314943253_1_0" index="0" disallow="tram rail_urban rail rail_electric rail_fast ship container cable_car subway aircraft wheelchair scooter drone" speed="13.89" length="11.26" shape="334.54,583.14 325.04,577.09"/>
    </edge>
    <edge id=":314943253_2" function="internal">
        <lane id=":314943253_2_0" index="0" disallow="tram rail_urban rail rail_electric rail_fast ship container cable_car subway aircraft wheelchair scooter drone" speed="13.89" length="11.26" shape="326.65,584.87 332.85,575.48"/>
    </edge>
    <edge id=":314943253_3" function="internal">
        <lane id=":314943253_3_0" index="0" disallow="tram rail_urban rail rail_electric rail_fast ship container cable_car subway aircraft wheelchair scooter drone" speed="6.53" length="4.22" shape="326.65,584.87 327.69,582.63 327.76,580.89"/>
    </edge>
    <edge id=":314943253_4" function="internal">
        <lane id=":314943253_4_0" index="0" disallow="tram rail_urban rail rail_electric rail_fast ship container cable_car subway aircraft wheelchair scooter drone" speed="6.53" length="4.82" shape="327.76,580.89 327.77,580.59 326.89,578.74 325.04,577.09"/>
    </edge>
    <edge id=":34204995_0" function="internal">
        <lane id=":34204995_0_0" index="0" disallow="tram rail_urban rail rail_electric rail_fast ship container cable_car subway aircraft wheelchair scooter drone" speed="3.65" length="4.67" shape="61.50,824.15 61.74,825.57 62.30,826.27 63.20,826.23 64.42,825.47"/>
    </edge>
    <edge id=":3619997139_0" function="internal">
        <lane id=":3619997139_0_0" index="0" disallow="tram rail_urban rail rail_electric rail_fast ship container cable_car subway aircraft wheelchair scooter drone" speed="3.65" length="4.67" shape="530.63,602.16 530.36,603.57 530.65,604.42 531.50,604.70 532.91,604.40"/>
    </edge>
    <edge id=":36448901_0" function="internal">
        <lane id=":36448901_0_0" index="0" disallow="tram rail_urban rail rail_electric rail_fast ship container cable_car subway aircraft wheelchair scooter drone" speed="6.20" length="9.05" shape="281.15,377.31 283.09,375.68 285.01,375.16 286.90,375.76 288.78,377.47"/>
    </edge>
    <edge id=":36448901_1" function="internal">
        <lane id=":36448901_1_0" index="0" disallow="tram rail_urban rail rail_electric rail_fast ship container cable_car subway aircraft wheelchair scooter drone" speed="22.22" length="11.19" shape="281.15,377.31 288.44,368.83"/>
    </edge>
    <edge id=":4999377420_0" function="internal">
        <lane id=":4999377420_0_0" index="0" allow="bicycle" speed="2.89" length="2.92" width="2.00" shape="180.60,99.48 179.71,99.31 179.18,99.48 179.01,100.01 179.18,100.90"/>
    </edge>
    <edge id=":4999412415_0" function="internal">
        <lane id=":4999412415_0_0" index="0" allow="pedestrian delivery bicycle" speed="6.95" length="11.71" shape="474.63,426.54 466.51,418.09"/>
    </edge>
    <edge id=":4999412415_1" function="internal">
        <lane id=":4999412415_1_0" index="0" allow="pedestrian delivery bicycle" speed="8.33" length="11.72" shape="471.54,428.57 470.42,425.50 469.59,422.97 468.47,420.62 466.51,418.09"/>
    </edge>
    <edge id=":4999412422_0" function="internal">
        <lane id=":4999412422_0_0" index="0" allow="pedestrian delivery bicycle" speed="5.56" length="7.88" shape="577.11,532.65 571.66,526.96"/>
    </edge>
    <edge id=":4999412422_1" function="internal">
        <lane id=":4999412422_1_0" index="0" allow="pedestrian delivery bicycle" speed="5.56" length="7.79" shape="577.11,532.65 575.43,531.23 573.95,530.73 572.25,530.69 569.92,530.62"/>
    </edge>
    <edge id=":5254419318_0" function="internal">
        <lane id=":5254419318_0_0" index="0" disallow="tram rail_urban rail rail_electric rail_fast ship container cable_car subway aircraft wheelchair scooter drone" speed="6.58" length="9.07" shape="219.41,455.05 217.86,453.11 217.28,451.13 217.68,449.11 219.04,447.06"/>
    </edge>
    <edge id=":5254419318_1" function="internal">
        <lane id=":5254419318_1_0" index="0" disallow="tram rail_urban rail rail_electric rail_fast ship container cable_car subway aircraft wheelchair scooter drone" speed="13.89" length="11.16" shape="219.41,455.05 211.36,447.32"/>
    </edge>
    <edge id=":5254419318_2" function="internal">
        <lane id=":5254419318_2_0" index="0" disallow="tram rail_urban rail rail_electric rail_fast ship container cable_car subway aircraft wheelchair scooter drone" speed="22.22" length="11.16" shape="211.77,455.52 219.04,447.06"/>
    </edge>
    <edge id=":5254419318_3" function="internal">
        <lane id=":5254419318_3_0" index="0" disallow="tram rail_urban rail rail_electric rail_fast ship container cable_car subway aircraft wheelchair scooter drone" speed="6.76" length="9.20" shape="211.77,455.52 213.08,453.39 213.45,451.31 212.88,449.29 211.36,447.32"/>
    </edge>
    <edge id=":5254621001_0" function="internal">
        <lane id=":5254621001_0_0" index="0" disallow="tram rail_urban rail rail_electric rail_fast ship container cable_car subway aircraft wheelchair scooter drone" speed="8.33" length="8.16" shape="160.28,477.28 162.19,478.74 163.28,480.04 164.38,481.32 166.32,482.73"/>
        <lane id=":5254621001_0_1" index="1" disallow="tram rail_urban rail rail_electric rail_fast ship container cable_car subway aircraft wheelchair scooter drone" speed="8.33" length="8.16" shape="160.28,477.28 162.43,478.31 164.08,478.65 165.73,478.98 167.92,479.95"/>
    </edge>
    <edge id=":5254758033_0" function="internal">
        <lane id=":5254758033_0_0" index="0" disallow="tram rail_urban rail rail_electric rail_fast ship container cable_car subway aircraft wheelchair scooter drone" speed="13.89" length="8.21" shape="417.46,413.78 418.93,415.69 419.64,417.22 420.35,418.76 421.82,420.67"/>
        <lane id=":5254758033_0_1" index="1" disallow="tram rail_urban rail rail_electric rail_fast ship container cable_car subway aircraft wheelchair scooter drone" speed="13.89" length="8.21" shape="419.78,411.57 421.25,413.48 421.96,415.02 422.67,416.56 424.14,418.47"/>
        <lane id=":5254758033_0_2" index="2" disallow="tram rail_urban rail rail_electric rail_fast ship container cable_car subway aircraft wheelchair scooter drone" speed="13.89" length="8.21" shape="419.78,411.57 421.61,413.13 423.12,413.92 424.62,414.70 426.46,416.26"/>
    </edge>
    <edge id=":54244579_0" function="internal">
        <lane id=":54244579_0_0" index="0" disallow="tram rail_urban rail rail_electric rail_fast ship container cable_car subway aircraft wheelchair scooter drone" speed="8.33" length="9.59" shape="164.80,573.09 161.14,581.96"/>
    </edge>
    <edge id=":54244579_1" function="internal">
        <lane id=":54244579_1_0" index="0" disallow="tram rail_urban rail rail_electric rail_fast ship container cable_car subway aircraft wheelchair scooter drone" speed="3.65" length="1.44" shape="164.80,573.09 165.06,574.51"/>
    </edge>
    <edge id=":54244579_6" function="internal">
        <lane id=":54244579_6_0" index="0" disallow="tram rail_urban rail rail_electric rail_fast ship container cable_car subway aircraft wheelchair scooter drone" speed="3.65" length="3.23" shape="165.06,574.51 165.64,575.19 166.54,575.13 167.74,574.34"/>
    </edge>
    <edge id=":54244579_2" function="internal">
        <lane id=":54244579_2_0" index="0" disallow="tram rail_urban rail rail_electric rail_fast ship container cable_car subway aircraft wheelchair scooter drone" speed="8.33" length="9.51" shape="164.12,583.13 167.74,574.34"/>
    </edge>
    <edge id=":54244579_3" function="internal">
        <lane id=":54244579_3_0" index="0" disallow="tram rail_urban rail rail_electric rail_fast ship container cable_car subway aircraft wheelchair scooter drone" speed="3.65" length="1.44" shape="164.12,583.13 163.81,581.72"/>
    </edge>
    <edge id=":54244579_7" function="internal">
        <lane id=":54244579_7_0" index="0" disallow="tram rail_urban rail rail_electric rail_fast ship container cable_car subway aircraft wheelchair scooter drone" speed="3.65" length="3.23" shape="163.81,581.72 163.22,581.06 162.33,581.14 161.14,581.96"/>
    </edge>
    <edge id=":54244579_4" function="internal">
        <lane id=":54244579_4_0" index="0" disallow="tram rail_urban rail rail_electric rail_fast ship container cable_car subway aircraft wheelchair scooter drone" speed="6.79" length="8.20" shape="158.55,574.90 160.30,576.44 161.31,578.12 161.59,579.96 161.14,581.96"/>
    </edge>
    <edge id=":54244579_5" function="internal">
        <lane id=":54244579_5_0" index="0" disallow="tram rail_urban rail rail_electric rail_fast ship container cable_car subway aircraft wheelchair scooter drone" speed="6.64" length="10.89" shape="158.55,574.90 161.72,576.66 164.31,577.15 166.32,576.38 167.74,574.34"/>
    </edge>
    <edge id=":54245133_0" function="internal">
        <lane id=":54245133_0_0" index="0" disallow="tram rail_urban rail rail_electric rail_fast ship container cable_car subway aircraft wheelchair scooter drone" speed="6.43" length="2.43" shape="426.16,541.21 424.80,539.19"/>
    </edge>
    <edge id=":54245133_1" function="internal">
        <lane id=":54245133_1_0" index="0" disallow="tram rail_urban rail rail_electric rail_fast ship container cable_car subway aircraft wheelchair scooter drone" speed="3.65" length="1.44" shape="426.16,541.21 424.96,540.41"/>
    </edge>
    <edge id=":54245133_4" function="internal">
        <lane id=":54245133_4_0" index="0" disallow="tram rail_urban rail rail_electric rail_fast ship container cable_car subway aircraft wheelchair scooter drone" speed="6.43" length="8.49" shape="424.80,539.19 424.70,539.04 422.74,538.29 420.26,538.96 417.28,541.05"/>
    </edge>
    <edge id=":54245133_5" function="internal">
        <lane id=":54245133_5_0" index="0" disallow="tram rail_urban rail rail_electric rail_fast ship container cable_car subway aircraft wheelchair scooter drone" speed="3.65" length="3.23" shape="424.96,540.41 424.06,540.35 423.48,541.03 423.20,542.44"/>
    </edge>
    <edge id=":54245133_2" function="internal">
        <lane id=":54245133_2_0" index="0" disallow="tram rail_urban rail rail_electric rail_fast ship container cable_car subway aircraft wheelchair scooter drone" speed="7.52" length="9.65" shape="420.77,532.75 421.19,534.69 420.75,536.72 419.45,538.84 417.28,541.05"/>
    </edge>
    <edge id=":54245133_3" function="internal">
        <lane id=":54245133_3_0" index="0" disallow="tram rail_urban rail rail_electric rail_fast ship container cable_car subway aircraft wheelchair scooter drone" speed="18.05" length="10.04" shape="420.77,532.75 421.74,535.54 422.03,537.57 422.30,539.62 423.20,542.44"/>
    </edge>
    <edge id=":5718076492_0" function="internal">
        <lane id=":5718076492_0_0" index="0" allow="pedestrian delivery bicycle" speed="8.33" length="5.00" shape="428.12,376.91 424.71,373.25"/>
    </edge>
    <edge id=":6307868980_0" function="internal">
        <lane id=":6307868980_0_0" index="0" allow="bicycle" speed="5.56" length="5.16" width="2.00" shape="437.76,367.58 434.18,363.88"/>
    </edge>
    <edge id=":6307868980_1" function="internal">
        <lane id=":6307868980_1_0" index="0" allow="bicycle" speed="2.89" length="1.29" width="2.00" shape="437.76,367.58 436.88,367.38 436.51,367.50"/>
    </edge>
    <edge id=":6307868980_4" function="internal">
        <lane id=":6307868980_4_0" index="0" allow="bicycle" speed="2.89" length="1.63" width="2.00" shape="436.51,367.50 436.35,367.55 436.15,368.07 436.31,368.96"/>
    </edge>
    <edge id=":6307868980_2" function="internal">
        <lane id=":6307868980_2_0" index="0" allow="bicycle" speed="5.56" length="5.11" width="2.00" shape="432.75,365.29 436.31,368.96"/>
    </edge>
    <edge id=":6307868980_3" function="internal">
        <lane id=":6307868980_3_0" index="0" allow="bicycle" speed="2.89" length="1.25" width="2.00" shape="432.75,365.29 433.64,365.47 433.97,365.36"/>
    </edge>
    <edge id=":6307868980_5" function="internal">
        <lane id=":6307868980_5_0" index="0" allow="bicycle" speed="2.89" length="1.67" width="2.00" shape="433.97,365.36 434.17,365.29 434.35,364.76 434.18,363.88"/>
    </edge>
    <edge id=":7009744555_0" function="internal">
        <lane id=":7009744555_0_0" index="0" allow="pedestrian delivery bicycle" speed="5.56" length="5.03" shape="590.54,546.99 587.10,543.32"/>
    </edge>
    <edge id=":7009788936_0" function="internal">
        <lane id=":7009788936_0_0" index="0" allow="bicycle" speed="5.56" length="5.01" width="2.00" shape="556.80,493.17 553.33,489.57"/>
    </edge>
    <edge id=":7009788936_1" function="internal">
        <lane id=":7009788936_1_0" index="0" allow="bicycle" speed="2.89" length="1.27" width="2.00" shape="556.80,493.17 555.92,492.98 555.57,493.09"/>
    </edge>
    <edge id=":7009788936_4" function="internal">
        <lane id=":7009788936_4_0" index="0" allow="bicycle" speed="2.89" length="1.65" width="2.00" shape="555.57,493.09 555.39,493.15 555.20,493.67 555.36,494.56"/>
    </edge>
    <edge id=":7009788936_2" function="internal">
        <lane id=":7009788936_2_0" index="0" allow="bicycle" speed="5.56" length="5.00" width="2.00" shape="551.89,490.96 555.36,494.56"/>
    </edge>
    <edge id=":7009788936_3" function="internal">
        <lane id=":7009788936_3_0" index="0" allow="bicycle" speed="2.89" length="1.27" width="2.00" shape="551.89,490.96 552.77,491.15 553.12,491.04"/>
    </edge>
    <edge id=":7009788936_5" function="internal">
        <lane id=":7009788936_5_0" index="0" allow="bicycle" speed="2.89" length="1.65" width="2.00" shape="553.12,491.04 553.30,490.98 553.49,490.46 553.33,489.57"/>
    </edge>
    <edge id=":7009788937_0" function="internal">
        <lane id=":7009788937_0_0" index="0" allow="pedestrian delivery bicycle" speed="5.56" length="5.00" shape="547.45,501.92 543.98,498.32"/>
    </edge>
    <edge id=":7015665926_0" function="internal">
        <lane id=":7015665926_0_0" index="0" disallow="pedestrian tram rail_urban rail rail_electric rail_fast ship container cable_car subway aircraft wheelchair scooter drone" speed="13.89" length="7.88" shape="516.98,496.90 515.52,495.01 514.79,493.50 514.02,492.03 512.44,490.27"/>