<?xml version='1.0' encoding='UTF-8'?>
<configuration>
	<input>
		<net-file value="car_rsu_traffic_coperception.net.xml"/>
		<route-files value="car_rsu_traffic_coperception.rou.xml"/>
		<additional-files value="car_rsu_traffic_coperception.poly.xml"/>
	</input>
	<time>
		<step-length value="0.1"/>
	</time>
	<num-clients value="2"/>
</configuration>
