[General]
sim-time-limit = 6000s
debug-on-errors = true
print-undisposed = true

cmdenv-express-mode = true
cmdenv-autoflush = true

**.scalar-recording = false
**.vector-recording = false

*.traci.core.version = -1
*.traci.launcher.typename = "PosixLauncher"
*.traci.launcher.sumocfg = "../../extern/veins/examples/veins/erlangen.sumo.cfg"

# separate random number generator for vehicle penetration rate
num-rngs = 2
*.traci.mapper.rng-0 = 1

[Config veins]
network = artery.veins.World

*.playgroundSizeX = 4000m
*.playgroundSizeY = 4000m
*.playgroundSizeZ = 50m

*.connectionManager.maxInterfDist = 1500m
*.connectionManager.sendDirect = true
*.connectionManager.coreDebug = false

*.withObstacles = true
*.obstacles.obstacles = xmldoc("config.xml", "//AnalogueModel[@type='SimpleObstacleShadowing']/obstacles")

*.node[*].nicType = "Nic80211pItsG5"
*.node[*].nic.macItsG5.txPower = 126mW
*.node[*].nic.phy80211p.sensitivity = -89dBm
*.node[*].nic.phy80211p.usePropagationDelay = true
*.node[*].nic.phy80211p.useThermalNoise = true
*.node[*].nic.phy80211p.thermalNoise = -110dBm
*.node[*].nic.phy80211p.decider = xmldoc("config.xml")
*.node[*].nic.phy80211p.analogueModels = xmldoc("config.xml")

*.node[*].applType = "artery.veins.ApplicationLayer"
*.node[*].appl.middleware.updateInterval = 0.1s
*.node[*].appl.middleware.datetime = "2013-06-01 12:35:00"
*.node[*].appl.middleware.services = xmldoc("services.xml")


[Config inet]
network = artery.inet.World

*.node[*].wlan[*].typename = "VanetNic"
*.node[*].wlan[*].radio.channelNumber = 180
*.node[*].wlan[*].radio.carrierFrequency = 5.9 GHz
*.node[*].wlan[*].radio.transmitter.power = 200 mW

*.node[*].middleware.updateInterval = 0.1s
*.node[*].middleware.datetime = "2013-06-01 12:35:00"
*.node[*].middleware.services = xmldoc("services.xml")


[Config envmod]
extends = inet
network = artery.envmod.World
**.identityRegistryModule = "idRegistry"
*.traci.mapper.vehicleType = "artery.envmod.Car"
*.environmentModel.preselectionMethod = ${preseletion=1,2,3}
*.environmentModel.traciModule = "traci"
*.environmentModel.nodeMobilityModule = ".mobility"
*.node[*].middleware.services = xmldoc("services-envmod.xml")
*.node[*].environmentModel.sensors = xmldoc("sensors.xml")


[Config inet_rsu]
extends = inet
*.numRoadSideUnits = 2
*.rsu[*].middleware.datetime = "2013-06-01 12:35:00"
*.rsu[*].middleware.services = xml("<services />")
*.rsu[*].mobility.initialZ = 10m
*.rsu[0].mobility.initialX = 300m
*.rsu[0].mobility.initialY = 500m
*.rsu[1].mobility.initialX = 2000m
*.rsu[1].mobility.initialY = 1000m
