<?xml version="1.0" encoding="UTF-8"?>

<!-- generated on Wed Feb 28 16:12:20 2018 by SUMO netgenerate Version 0.31.0
<?xml version="1.0" encoding="UTF-8"?>

<configuration xmlns:xsi="http://www.w3.org/2001/XMLSchema-instance" xsi:noNamespaceSchemaLocation="http://sumo.dlr.de/xsd/netgenerateConfiguration.xsd">

    <random_network>
        <rand value="true"/>
        <rand.iterations value="100"/>
    </random_network>

    <output>
        <output-file value="simulte.net.xml"/>
    </output>

</configuration>
-->

<net version="0.27" xmlns:xsi="http://www.w3.org/2001/XMLSchema-instance" xsi:noNamespaceSchemaLocation="http://sumo.dlr.de/xsd/net_file.xsd">

    <location netOffset="882.72,1528.66" convBoundary="0.00,0.00,1795.49,2428.02" origBoundary="-882.72,-1528.66,912.78,899.36" projParameter="+proj=tmerc +lat_0=48.78407 +lon_0=11.47258 +ellps=WGS84 +datum=WGS84 +units=m +no_defs"/>

    <edge id=":1_0" function="internal">
        <lane id=":1_0_0" index="0" speed="13.90" length="5.38" shape="881.16,1534.52 880.92,1533.00 880.25,1532.06 879.15,1531.72 877.63,1531.96"/>
    </edge>
    <edge id=":1_1" function="internal">
        <lane id=":1_1_0" index="0" speed="13.90" length="10.00" shape="881.16,1534.52 881.12,1531.56 881.01,1529.52 880.70,1527.51 880.05,1524.62"/>
    </edge>
    <edge id=":1_2" function="internal">
        <lane id=":1_2_0" index="0" speed="13.90" length="5.74" shape="881.16,1534.52 881.52,1531.22 882.64,1529.08"/>
    </edge>
    <edge id=":1_3" function="internal">
        <lane id=":1_3_0" index="0" speed="13.90" length="2.41" shape="881.16,1534.52 881.96,1533.27 882.78,1532.85"/>
    </edge>
    <edge id=":1_16" function="internal">
        <lane id=":1_16_0" index="0" speed="13.90" length="5.59" shape="882.64,1529.08 882.74,1528.90 884.80,1527.56 887.71,1527.20"/>
    </edge>
    <edge id=":1_17" function="internal">
        <lane id=":1_17_0" index="0" speed="13.90" length="2.41" shape="882.78,1532.85 883.61,1533.25 884.46,1534.47"/>
    </edge>
    <edge id=":1_4" function="internal">
        <lane id=":1_4_0" index="0" speed="13.90" length="5.81" shape="887.58,1530.49 886.19,1530.70 885.21,1531.43 884.63,1532.69 884.46,1534.47"/>
    </edge>
    <edge id=":1_5" function="internal">
        <lane id=":1_5_0" index="0" speed="13.90" length="10.15" shape="887.58,1530.49 884.59,1530.43 882.52,1530.60 880.50,1531.08 877.63,1531.96"/>
    </edge>
    <edge id=":1_6" function="internal">
        <lane id=":1_6_0" index="0" speed="13.90" length="10.35" shape="887.58,1530.49 884.79,1530.04 882.61,1528.91 881.03,1527.10 880.05,1524.62"/>
    </edge>
    <edge id=":1_7" function="internal">
        <lane id=":1_7_0" index="0" speed="13.90" length="4.82" shape="887.58,1530.49 886.37,1529.62 885.99,1528.78 886.44,1527.97 887.71,1527.20"/>
    </edge>
    <edge id=":1_8" function="internal">
        <lane id=":1_8_0" index="0" speed="13.90" length="6.03" shape="883.26,1523.85 883.83,1525.26 884.76,1526.29 886.05,1526.93 887.71,1527.20"/>
    </edge>
    <edge id=":1_9" function="internal">
        <lane id=":1_9_0" index="0" speed="13.90" length="10.72" shape="883.26,1523.85 883.93,1526.86 884.27,1529.11 884.40,1531.39 884.46,1534.47"/>
    </edge>
    <edge id=":1_10" function="internal">
        <lane id=":1_10_0" index="0" speed="13.90" length="5.16" shape="883.26,1523.85 883.44,1526.58 882.56,1528.84"/>
    </edge>
    <edge id=":1_11" function="internal">
        <lane id=":1_11_0" index="0" speed="13.90" length="2.41" shape="883.26,1523.85 882.75,1525.25 882.04,1525.84"/>
    </edge>
    <edge id=":1_18" function="internal">
        <lane id=":1_18_0" index="0" speed="13.90" length="5.92" shape="882.56,1528.84 880.63,1530.64 877.63,1531.96"/>
    </edge>
    <edge id=":1_19" function="internal">
        <lane id=":1_19_0" index="0" speed="13.90" length="2.41" shape="882.04,1525.84 881.14,1525.63 880.05,1524.62"/>
    </edge>
    <edge id=":1_12" function="internal">
        <lane id=":1_12_0" index="0" speed="13.90" length="6.02" shape="876.65,1528.81 878.40,1528.07 879.55,1527.13 880.10,1525.98 880.05,1524.62"/>
    </edge>
    <edge id=":1_13" function="internal">
        <lane id=":1_13_0" index="0" speed="13.90" length="11.25" shape="876.65,1528.81 879.69,1527.91 882.10,1527.38 884.54,1527.16 887.71,1527.20"/>
    </edge>
    <edge id=":1_14" function="internal">
        <lane id=":1_14_0" index="0" speed="13.90" length="11.91" shape="876.65,1528.81 880.02,1528.27 882.44,1529.04 883.92,1531.10 884.46,1534.47"/>
    </edge>
    <edge id=":1_15" function="internal">
        <lane id=":1_15_0" index="0" speed="13.90" length="4.82" shape="876.65,1528.81 878.08,1529.23 878.72,1529.90 878.57,1530.81 877.63,1531.96"/>
    </edge>
    <edge id=":10_0" function="internal">
        <lane id=":10_0_0" index="0" speed="13.90" length="5.98" shape="721.23,1586.72 720.44,1585.08 719.49,1584.41 718.36,1584.71 717.06,1585.99"/>
    </edge>
    <edge id=":10_1" function="internal">
        <lane id=":10_1_0" index="0" speed="13.90" length="11.10" shape="721.23,1586.72 720.26,1583.69 719.36,1581.43 718.02,1579.47 715.75,1577.33"/>
    </edge>
    <edge id=":10_2" function="internal">
        <lane id=":10_2_0" index="0" speed="13.90" length="6.43" shape="721.23,1586.72 720.35,1582.76 720.55,1580.39"/>
    </edge>
    <edge id=":10_3" function="internal">
        <lane id=":10_3_0" index="0" speed="13.90" length="2.41" shape="721.23,1586.72 721.63,1585.28 722.28,1584.63"/>
    </edge>
    <edge id=":10_16" function="internal">
        <lane id=":10_16_0" index="0" speed="13.90" length="6.27" shape="720.55,1580.39 720.61,1579.65 722.00,1577.41 724.53,1576.02"/>
    </edge>
    <edge id=":10_17" function="internal">
        <lane id=":10_17_0" index="0" speed="13.90" length="2.41" shape="722.28,1584.63 723.20,1584.77 724.37,1585.68"/>
    </edge>
    <edge id=":10_4" function="internal">
        <lane id=":10_4_0" index="0" speed="13.90" length="7.37" shape="725.51,1579.17 724.32,1579.92 723.73,1581.26 723.75,1583.18 724.37,1585.68"/>
    </edge>
    <edge id=":10_5" function="internal">
        <lane id=":10_5_0" index="0" speed="13.90" length="11.13" shape="725.51,1579.17 722.61,1580.31 720.65,1581.66 719.01,1583.47 717.06,1585.99"/>
    </edge>
    <edge id=":10_6" function="internal">
        <lane id=":10_6_0" index="0" speed="13.90" length="10.36" shape="725.51,1579.17 722.86,1579.69 720.35,1579.55 717.98,1578.77 715.75,1577.33"/>
    </edge>
    <edge id=":10_7" function="internal">
        <lane id=":10_7_0" index="0" speed="13.90" length="4.82" shape="725.51,1579.17 724.08,1578.75 723.44,1578.08 723.59,1577.17 724.53,1576.02"/>
    </edge>
    <edge id=":10_8" function="internal">
        <lane id=":10_8_0" index="0" speed="13.90" length="7.10" shape="717.84,1574.78 719.36,1575.76 720.98,1576.29 722.71,1576.38 724.53,1576.02"/>
    </edge>
    <edge id=":10_9" function="internal">
        <lane id=":10_9_0" index="0" speed="13.90" length="12.92" shape="717.84,1574.78 720.27,1577.15 721.97,1579.63 723.23,1582.42 724.37,1585.68"/>
    </edge>
    <edge id=":10_10" function="internal">
        <lane id=":10_10_0" index="0" speed="13.90" length="5.47" shape="717.84,1574.78 719.62,1576.97 720.09,1579.57"/>
    </edge>
    <edge id=":10_11" function="internal">
        <lane id=":10_11_0" index="0" speed="13.90" length="2.58" shape="717.84,1574.78 718.28,1576.20 718.07,1577.10 717.92,1577.17"/>
    </edge>
    <edge id=":10_18" function="internal">
        <lane id=":10_18_0" index="0" speed="13.90" length="7.17" shape="720.09,1579.57 719.23,1582.58 717.06,1585.99"/>
    </edge>
    <edge id=":10_19" function="internal">
        <lane id=":10_19_0" index="0" speed="13.90" length="2.24" shape="717.92,1577.17 717.23,1577.48 715.75,1577.33"/>
    </edge>
    <edge id=":10_12" function="internal">
        <lane id=":10_12_0" index="0" speed="13.90" length="7.45" shape="714.46,1583.95 715.92,1581.78 716.62,1579.96 716.56,1578.47 715.75,1577.33"/>
    </edge>
    <edge id=":10_13" function="internal">
        <lane id=":10_13_0" index="0" speed="13.90" length="13.06" shape="714.46,1583.95 716.67,1581.26 718.86,1579.07 721.38,1577.33 724.53,1576.02"/>
    </edge>
    <edge id=":10_14" function="internal">
        <lane id=":10_14_0" index="0" speed="13.90" length="14.19" shape="714.46,1583.95 717.54,1580.92 720.22,1580.20 722.50,1581.78 724.37,1585.68"/>
    </edge>
    <edge id=":10_15" function="internal">
        <lane id=":10_15_0" index="0" speed="13.90" length="4.82" shape="714.46,1583.95 715.87,1583.49 716.78,1583.67 717.17,1584.51 717.06,1585.99"/>
    </edge>
    <edge id=":1004_0" function="internal">
        <lane id=":1004_0_0" index="0" speed="13.90" length="4.66" shape="743.84,1830.01 742.63,1829.81 741.54,1829.98 740.59,1830.52 739.77,1831.44"/>
    </edge>
    <edge id=":1004_1" function="internal">
        <lane id=":1004_1_0" index="0" speed="13.90" length="8.56" shape="743.84,1830.01 741.45,1829.22 739.88,1828.41 738.61,1827.19 737.12,1825.17"/>
    </edge>
    <edge id=":1004_2" function="internal">
        <lane id=":1004_2_0" index="0" speed="13.90" length="2.41" shape="743.84,1830.01 742.90,1828.86 742.74,1827.95"/>
    </edge>
    <edge id=":1004_9" function="internal">
        <lane id=":1004_9_0" index="0" speed="13.90" length="2.41" shape="742.74,1827.95 743.38,1827.28 744.80,1826.85"/>
    </edge>
    <edge id=":1004_3" function="internal">
        <lane id=":1004_3_0" index="0" speed="13.90" length="6.31" shape="739.83,1823.29 740.93,1824.78 741.87,1825.68 743.03,1826.27 744.80,1826.85"/>
    </edge>
    <edge id=":1004_4" function="internal">
        <lane id=":1004_4_0" index="0" speed="13.90" length="4.31" shape="739.83,1823.29 740.87,1825.30 741.20,1827.33"/>
    </edge>
    <edge id=":1004_5" function="internal">
        <lane id=":1004_5_0" index="0" speed="13.90" length="2.41" shape="739.83,1823.29 739.86,1824.78 739.41,1825.59"/>
    </edge>
    <edge id=":1004_10" function="internal">
        <lane id=":1004_10_0" index="0" speed="13.90" length="4.40" shape="741.20,1827.33 740.84,1829.38 739.77,1831.44"/>
    </edge>
    <edge id=":1004_11" function="internal">
        <lane id=":1004_11_0" index="0" speed="13.90" length="2.41" shape="739.41,1825.59 738.50,1825.72 737.12,1825.17"/>
    </edge>
    <edge id=":1004_6" function="internal">
        <lane id=":1004_6_0" index="0" speed="13.90" length="4.72" shape="737.05,1829.59 737.63,1828.46 737.84,1827.34 737.67,1826.25 737.12,1825.17"/>
    </edge>
    <edge id=":1004_7" function="internal">
        <lane id=":1004_7_0" index="0" speed="13.90" length="8.88" shape="737.05,1829.59 738.61,1827.83 740.42,1826.79 742.48,1826.46 744.80,1826.85"/>
    </edge>
    <edge id=":1004_8" function="internal">
        <lane id=":1004_8_0" index="0" speed="13.90" length="4.82" shape="737.05,1829.59 738.42,1829.03 739.34,1829.15 739.79,1829.96 739.77,1831.44"/>
    </edge>
    <edge id=":1010_0" function="internal">
        <lane id=":1010_0_0" index="0" speed="13.90" length="14.71" shape="772.20,2087.47 770.36,2090.36 767.78,2092.60 764.45,2094.19 760.38,2095.13"/>
    </edge>
    <edge id=":1010_1" function="internal">
        <lane id=":1010_1_0" index="0" speed="13.90" length="7.21" shape="772.20,2087.47 770.19,2090.40 767.69,2091.44 766.78,2091.19"/>
    </edge>
    <edge id=":1010_2" function="internal">
        <lane id=":1010_2_0" index="0" speed="13.90" length="2.70" shape="772.20,2087.47 770.94,2088.25 770.02,2088.29 769.84,2088.06"/>
    </edge>
    <edge id=":1010_9" function="internal">
        <lane id=":1010_9_0" index="0" speed="13.90" length="6.55" shape="766.78,2091.19 764.71,2090.60 761.25,2087.88"/>
    </edge>
    <edge id=":1010_10" function="internal">
        <lane id=":1010_10_0" index="0" speed="13.90" length="2.12" shape="769.84,2088.06 769.44,2087.57 769.20,2086.10"/>
    </edge>
    <edge id=":1010_3" function="internal">
        <lane id=":1010_3_0" index="0" speed="13.90" length="6.97" shape="763.57,2085.53 765.44,2087.07 767.01,2087.68 768.26,2087.36 769.20,2086.10"/>
    </edge>
    <edge id=":1010_4" function="internal">
        <lane id=":1010_4_0" index="0" speed="13.90" length="14.85" shape="763.57,2085.53 766.41,2089.14 766.82,2091.94 764.81,2093.94 760.38,2095.13"/>
    </edge>
    <edge id=":1010_5" function="internal">
        <lane id=":1010_5_0" index="0" speed="13.90" length="4.82" shape="763.57,2085.53 763.87,2086.99 763.58,2087.86 762.71,2088.16 761.25,2087.88"/>
    </edge>
    <edge id=":1010_6" function="internal">
        <lane id=":1010_6_0" index="0" speed="13.90" length="6.16" shape="759.93,2091.86 761.77,2091.37 762.60,2090.54 762.43,2089.37 761.25,2087.88"/>
    </edge>
    <edge id=":1010_7" function="internal">
        <lane id=":1010_7_0" index="0" speed="13.90" length="11.40" shape="759.93,2091.86 763.17,2091.13 765.79,2089.93 767.80,2088.25 769.20,2086.10"/>
    </edge>
    <edge id=":1010_8" function="internal">
        <lane id=":1010_8_0" index="0" speed="13.90" length="2.30" shape="759.93,2091.86 761.26,2092.51 761.72,2093.17"/>
    </edge>
    <edge id=":1010_11" function="internal">
        <lane id=":1010_11_0" index="0" speed="13.90" length="2.52" shape="761.72,2093.17 761.79,2093.27 761.49,2094.14 760.38,2095.13"/>
    </edge>
    <edge id=":1026_0" function="internal">
        <lane id=":1026_0_0" index="0" speed="13.90" length="4.98" shape="593.17,1726.51 592.78,1725.20 592.07,1724.33 591.04,1723.88 589.68,1723.86"/>
    </edge>
    <edge id=":1026_1" function="internal">
        <lane id=":1026_1_0" index="0" speed="13.90" length="9.19" shape="593.17,1726.51 592.78,1723.81 592.60,1721.95 592.60,1720.08 592.77,1717.36"/>
    </edge>
    <edge id=":1026_2" function="internal">
        <lane id=":1026_2_0" index="0" speed="13.90" length="2.41" shape="593.17,1726.51 593.80,1725.16 594.56,1724.63"/>
    </edge>
    <edge id=":1026_9" function="internal">
        <lane id=":1026_9_0" index="0" speed="13.90" length="2.41" shape="594.56,1724.63 595.44,1724.92 596.43,1726.02"/>
    </edge>
    <edge id=":1026_3" function="internal">
        <lane id=":1026_3_0" index="0" speed="13.90" length="8.46" shape="596.06,1717.60 595.91,1720.10 595.90,1721.82 596.07,1723.54 596.43,1726.02"/>
    </edge>
    <edge id=":1026_4" function="internal">
        <lane id=":1026_4_0" index="0" speed="13.90" length="4.75" shape="596.06,1717.60 595.52,1720.05 594.27,1721.91"/>
    </edge>
    <edge id=":1026_5" function="internal">
        <lane id=":1026_5_0" index="0" speed="13.90" length="2.41" shape="596.06,1717.60 595.15,1718.77 594.30,1719.13"/>
    </edge>
    <edge id=":1026_10" function="internal">
        <lane id=":1026_10_0" index="0" speed="13.90" length="5.05" shape="594.27,1721.91 592.32,1723.18 589.68,1723.86"/>
    </edge>
    <edge id=":1026_11" function="internal">
        <lane id=":1026_11_0" index="0" speed="13.90" length="2.41" shape="594.30,1719.13 593.51,1718.65 592.77,1717.36"/>
    </edge>
    <edge id=":1026_6" function="internal">
        <lane id=":1026_6_0" index="0" speed="13.90" length="5.22" shape="589.26,1720.58 590.72,1720.22 591.79,1719.57 592.48,1718.61 592.77,1717.36"/>
    </edge>
    <edge id=":1026_7" function="internal">
        <lane id=":1026_7_0" index="0" speed="13.90" length="10.22" shape="589.26,1720.58 592.05,1720.62 594.18,1721.54 595.64,1723.34 596.43,1726.02"/>
    </edge>
    <edge id=":1026_8" function="internal">
        <lane id=":1026_8_0" index="0" speed="13.90" length="4.82" shape="589.26,1720.58 590.59,1721.25 591.10,1722.01 590.80,1722.88 589.68,1723.86"/>
    </edge>
    <edge id=":1056_0" function="internal">
        <lane id=":1056_0_0" index="0" speed="13.90" length="4.82" shape="1463.56,1078.62 1464.43,1079.82 1464.54,1080.74 1463.87,1081.37 1462.42,1081.72"/>
    </edge>
    <edge id=":1092_0" function="internal">
        <lane id=":1092_0_0" index="0" speed="13.90" length="13.72" shape="645.79,1973.49 643.60,1970.76 642.15,1967.82 641.15,1964.62 640.30,1961.13"/>
    </edge>
    <edge id=":1092_1" function="internal">
        <lane id=":1092_1_0" index="0" speed="13.90" length="5.26" shape="645.79,1973.49 644.42,1971.25 644.27,1968.62"/>
    </edge>
    <edge id=":1092_2" function="internal">
        <lane id=":1092_2_0" index="0" speed="13.90" length="2.63" shape="645.79,1973.49 645.49,1972.03 645.78,1971.16 645.99,1971.09"/>
    </edge>
    <edge id=":1092_9" function="internal">
        <lane id=":1092_9_0" index="0" speed="13.90" length="8.28" shape="644.27,1968.62 644.26,1968.43 645.31,1965.06 647.58,1961.11"/>
    </edge>
    <edge id=":1092_10" function="internal">
        <lane id=":1092_10_0" index="0" speed="13.90" length="2.19" shape="645.99,1971.09 646.65,1970.86 648.11,1971.15"/>
    </edge>
    <edge id=":1092_3" function="internal">
        <lane id=":1092_3_0" index="0" speed="13.90" length="8.99" shape="650.31,1962.97 648.60,1965.80 647.66,1968.11 647.50,1969.89 648.11,1971.15"/>
    </edge>
    <edge id=":1092_4" function="internal">
        <lane id=":1092_4_0" index="0" speed="13.90" length="15.87" shape="650.31,1962.97 647.03,1966.76 644.27,1967.71 642.03,1965.84 640.30,1961.13"/>
    </edge>
    <edge id=":1092_5" function="internal">
        <lane id=":1092_5_0" index="0" speed="13.90" length="4.82" shape="650.31,1962.97 648.93,1963.53 648.02,1963.40 647.57,1962.60 647.58,1961.11"/>
    </edge>
    <edge id=":1092_6" function="internal">
        <lane id=":1092_6_0" index="0" speed="13.90" length="6.46" shape="643.51,1960.37 644.21,1962.28 645.12,1963.04 646.25,1962.65 647.58,1961.11"/>
    </edge>
    <edge id=":1092_7" function="internal">
        <lane id=":1092_7_0" index="0" speed="13.90" length="11.94" shape="643.51,1960.37 644.22,1963.61 644.92,1966.26 646.06,1968.66 648.11,1971.15"/>
    </edge>
    <edge id=":1092_8" function="internal">
        <lane id=":1092_8_0" index="0" speed="13.90" length="2.41" shape="643.51,1960.37 643.00,1961.76 642.29,1962.35"/>
    </edge>
    <edge id=":1092_11" function="internal">
        <lane id=":1092_11_0" index="0" speed="13.90" length="2.41" shape="642.29,1962.35 641.39,1962.15 640.30,1961.13"/>
    </edge>
    <edge id=":115_0" function="internal">
        <lane id=":115_0_0" index="0" speed="13.90" length="5.82" shape="1053.71,1219.26 1052.73,1217.82 1051.69,1217.29 1050.59,1217.68 1049.44,1218.99"/>
    </edge>
    <edge id=":115_1" function="internal">
        <lane id=":115_1_0" index="0" speed="13.90" length="11.00" shape="1053.71,1219.26 1052.14,1216.72 1050.26,1214.73 1048.06,1213.30 1045.55,1212.43"/>
    </edge>
    <edge id=":115_2" function="internal">
        <lane id=":115_2_0" index="0" speed="13.90" length="2.29" shape="1053.71,1219.26 1053.89,1217.79 1054.38,1217.14"/>
    </edge>
    <edge id=":115_9" function="internal">
        <lane id=":115_9_0" index="0" speed="13.90" length="2.53" shape="1054.38,1217.14 1054.45,1217.05 1055.37,1217.05 1056.66,1217.79"/>
    </edge>
    <edge id=":115_3" function="internal">
        <lane id=":115_3_0" index="0" speed="13.90" length="13.94" shape="1046.27,1209.21 1049.49,1210.31 1052.30,1212.11 1054.69,1214.61 1056.66,1217.79"/>
    </edge>
    <edge id=":115_4" function="internal">
        <lane id=":115_4_0" index="0" speed="13.90" length="7.15" shape="1046.27,1209.21 1049.64,1210.52 1051.29,1212.59 1051.27,1213.48"/>
    </edge>
    <edge id=":115_5" function="internal">
        <lane id=":115_5_0" index="0" speed="13.90" length="2.65" shape="1046.27,1209.21 1047.30,1210.28 1047.52,1211.17 1047.37,1211.36"/>
    </edge>
    <edge id=":115_10" function="internal">
        <lane id=":115_10_0" index="0" speed="13.90" length="5.94" shape="1051.27,1213.48 1051.22,1215.41 1049.44,1218.99"/>
    </edge>
    <edge id=":115_11" function="internal">
        <lane id=":115_11_0" index="0" speed="13.90" length="2.17" shape="1047.37,1211.36 1046.94,1211.89 1045.55,1212.43"/>
    </edge>
    <edge id=":115_6" function="internal">
        <lane id=":115_6_0" index="0" speed="13.90" length="6.16" shape="1046.70,1217.16 1047.60,1215.40 1047.71,1214.03 1047.03,1213.04 1045.55,1212.43"/>
    </edge>
    <edge id=":115_7" function="internal">
        <lane id=":115_7_0" index="0" speed="13.90" length="13.59" shape="1046.70,1217.16 1049.39,1214.10 1051.95,1213.18 1054.37,1214.41 1056.66,1217.79"/>
    </edge>
    <edge id=":115_8" function="internal">
        <lane id=":115_8_0" index="0" speed="13.90" length="4.82" shape="1046.70,1217.16 1048.07,1216.59 1048.98,1216.70 1049.44,1217.51 1049.44,1218.99"/>
    </edge>
    <edge id=":118_0" function="internal">
        <lane id=":118_0_0" index="0" speed="13.90" length="12.40" shape="656.42,1206.63 653.21,1207.52 650.39,1207.84 647.52,1207.80 644.16,1207.57"/>
    </edge>
    <edge id=":118_1" function="internal">
        <lane id=":118_1_0" index="0" speed="13.90" length="5.12" shape="656.42,1206.63 653.86,1206.93 651.46,1206.08"/>
    </edge>
    <edge id=":118_2" function="internal">
        <lane id=":118_2_0" index="0" speed="13.90" length="2.56" shape="656.42,1206.63 654.98,1206.26 654.32,1205.61 654.34,1205.46"/>
    </edge>
    <edge id=":118_9" function="internal">
        <lane id=":118_9_0" index="0" speed="13.90" length="7.34" shape="651.46,1206.08 651.37,1206.04 648.94,1203.96 646.59,1200.67"/>
    </edge>
    <edge id=":118_10" function="internal">
        <lane id=":118_10_0" index="0" speed="13.90" length="2.26" shape="654.34,1205.46 654.43,1204.70 655.33,1203.51"/>
    </edge>
    <edge id=":118_3" function="internal">
        <lane id=":118_3_0" index="0" speed="13.90" length="7.95" shape="649.43,1198.98 651.02,1201.31 652.53,1202.84 653.97,1203.58 655.33,1203.51"/>
    </edge>
    <edge id=":118_4" function="internal">
        <lane id=":118_4_0" index="0" speed="13.90" length="14.37" shape="649.43,1198.98 651.18,1203.01 650.89,1205.79 648.55,1207.31 644.16,1207.57"/>
    </edge>
    <edge id=":118_5" function="internal">
        <lane id=":118_5_0" index="0" speed="13.90" length="4.82" shape="649.43,1198.98 649.35,1200.47 648.86,1201.24 647.94,1201.31 646.59,1200.67"/>
    </edge>
    <edge id=":118_6" function="internal">
        <lane id=":118_6_0" index="0" speed="13.90" length="6.03" shape="644.38,1204.28 646.22,1204.17 647.21,1203.53 647.33,1202.36 646.59,1200.67"/>
    </edge>
    <edge id=":118_7" function="internal">
        <lane id=":118_7_0" index="0" speed="13.90" length="11.09" shape="644.38,1204.28 647.54,1204.53 649.96,1204.64 652.33,1204.37 655.33,1203.51"/>
    </edge>
    <edge id=":118_8" function="internal">
        <lane id=":118_8_0" index="0" speed="13.90" length="2.41" shape="644.38,1204.28 645.56,1205.18 645.92,1206.03"/>
    </edge>
    <edge id=":118_11" function="internal">
        <lane id=":118_11_0" index="0" speed="13.90" length="2.41" shape="645.92,1206.03 645.45,1206.83 644.16,1207.57"/>
    </edge>
    <edge id=":1198_0" function="internal">
        <lane id=":1198_0_0" index="0" speed="13.90" length="0.43" shape="607.73,1825.00 607.70,1824.88 607.68,1824.79 607.67,1824.71 607.65,1824.58"/>
    </edge>
    <edge id=":1198_1" function="internal">
        <lane id=":1198_1_0" index="0" speed="13.90" length="2.41" shape="607.73,1825.00 608.24,1823.61 608.95,1823.01"/>
    </edge>
    <edge id=":1198_4" function="internal">
        <lane id=":1198_4_0" index="0" speed="13.90" length="2.41" shape="608.95,1823.01 609.85,1823.22 610.94,1824.24"/>
    </edge>
    <edge id=":1198_2" function="internal">
        <lane id=":1198_2_0" index="0" speed="13.90" length="0.14" shape="610.91,1824.10 610.92,1824.14 610.92,1824.17 610.93,1824.19 610.94,1824.24"/>
    </edge>
    <edge id=":1198_3" function="internal">
        <lane id=":1198_3_0" index="0" speed="13.90" length="2.41" shape="610.91,1824.10 610.28,1825.44 609.52,1825.97"/>
    </edge>
    <edge id=":1198_5" function="internal">
        <lane id=":1198_5_0" index="0" speed="13.90" length="2.41" shape="609.52,1825.97 608.64,1825.68 607.65,1824.58"/>
    </edge>
    <edge id=":12_0" function="internal">
        <lane id=":12_0_0" index="0" speed="13.90" length="14.55" shape="960.76,1359.65 958.33,1356.91 955.53,1354.67 952.42,1352.84 949.05,1351.33"/>
    </edge>
    <edge id=":12_1" function="internal">
        <lane id=":12_1_0" index="0" speed="13.90" length="16.21" shape="960.76,1359.65 958.57,1356.38 956.54,1352.75 954.72,1348.99 953.21,1345.35"/>
    </edge>
    <edge id=":12_2" function="internal">
        <lane id=":12_2_0" index="0" speed="13.90" length="7.19" shape="960.76,1359.65 958.99,1356.28 958.55,1352.92"/>
    </edge>
    <edge id=":12_3" function="internal">
        <lane id=":12_3_0" index="0" speed="13.90" length="6.03" shape="960.76,1359.65 958.95,1356.13 959.20,1354.08"/>
    </edge>
    <edge id=":12_4" function="internal">
        <lane id=":12_4_0" index="0" speed="13.90" length="2.55" shape="960.76,1359.65 960.68,1358.16 961.10,1357.34 961.24,1357.31"/>
    </edge>
    <edge id=":12_25" function="internal">
        <lane id=":12_25_0" index="0" speed="13.90" length="8.69" shape="958.55,1352.92 958.52,1352.70 959.35,1348.88 961.47,1344.85"/>
    </edge>
    <edge id=":12_26" function="internal">
        <lane id=":12_26_0" index="0" speed="13.90" length="8.69" shape="959.20,1354.08 959.29,1353.39 961.78,1351.40 966.43,1350.18"/>
    </edge>
    <edge id=":12_27" function="internal">
        <lane id=":12_27_0" index="0" speed="13.90" length="2.27" shape="961.24,1357.31 962.01,1357.18 963.41,1357.68"/>
    </edge>
    <edge id=":12_5" function="internal">
        <lane id=":12_5_0" index="0" speed="13.90" length="7.14" shape="966.91,1353.45 964.44,1354.04 963.04,1354.94 962.69,1356.16 963.41,1357.68"/>
    </edge>
    <edge id=":12_6" function="internal">
        <lane id=":12_6_0" index="0" speed="13.90" length="18.12" shape="966.91,1353.45 962.68,1353.68 957.86,1353.35 953.10,1352.54 949.05,1351.33"/>
    </edge>
    <edge id=":12_7" function="internal">
        <lane id=":12_7_0" index="0" speed="13.90" length="17.39" shape="966.91,1353.45 962.29,1353.49 958.47,1352.16 955.44,1349.45 953.21,1345.35"/>
    </edge>
    <edge id=":12_8" function="internal">
        <lane id=":12_8_0" index="0" speed="13.90" length="15.81" shape="966.91,1353.45 961.92,1353.59 959.35,1352.21 959.20,1349.29 961.47,1344.85"/>
    </edge>
    <edge id=":12_9" function="internal">
        <lane id=":12_9_0" index="0" speed="13.90" length="4.82" shape="966.91,1353.45 965.56,1352.81 965.03,1352.05 965.32,1351.18 966.43,1350.18"/>
    </edge>
    <edge id=":12_10" function="internal">
        <lane id=":12_10_0" index="0" speed="13.90" length="6.44" shape="964.21,1346.68 963.29,1348.49 963.35,1349.68 964.40,1350.24 966.43,1350.18"/>
    </edge>
    <edge id=":12_11" function="internal">
        <lane id=":12_11_0" index="0" speed="13.90" length="11.80" shape="964.21,1346.68 962.57,1349.75 961.89,1352.61 962.17,1355.25 963.41,1357.68"/>
    </edge>
    <edge id=":12_12" function="internal">
        <lane id=":12_12_0" index="0" speed="13.90" length="17.37" shape="964.21,1346.68 961.15,1350.14 957.60,1352.06 953.57,1352.46 949.05,1351.33"/>
    </edge>
    <edge id=":12_13" function="internal">
        <lane id=":12_13_0" index="0" speed="13.90" length="15.91" shape="964.21,1346.68 961.03,1350.34 958.13,1351.34 955.52,1349.68 953.21,1345.35"/>
    </edge>
    <edge id=":12_14" function="internal">
        <lane id=":12_14_0" index="0" speed="13.90" length="4.82" shape="964.21,1346.68 962.84,1347.25 961.92,1347.14 961.47,1346.34 961.47,1344.85"/>
    </edge>
    <edge id=":12_15" function="internal">
        <lane id=":12_15_0" index="0" speed="13.90" length="7.50" shape="956.29,1344.17 957.38,1346.22 958.61,1347.02 959.97,1346.56 961.47,1344.85"/>
    </edge>
    <edge id=":12_16" function="internal">
        <lane id=":12_16_0" index="0" speed="13.90" length="12.88" shape="956.29,1344.17 957.94,1347.21 960.19,1349.22 963.01,1350.21 966.43,1350.18"/>
    </edge>
    <edge id=":12_17" function="internal">
        <lane id=":12_17_0" index="0" speed="13.90" length="15.31" shape="956.29,1344.17 957.74,1347.69 959.40,1351.17 961.29,1354.53 963.41,1357.68"/>
    </edge>
    <edge id=":12_18" function="internal">
        <lane id=":12_18_0" index="0" speed="13.90" length="6.42" shape="956.29,1344.17 957.54,1349.06 957.17,1350.38"/>
    </edge>
    <edge id=":12_19" function="internal">
        <lane id=":12_19_0" index="0" speed="13.90" length="2.41" shape="956.29,1344.17 955.96,1345.62 955.34,1346.30"/>
    </edge>
    <edge id=":12_28" function="internal">
        <lane id=":12_28_0" index="0" speed="13.90" length="9.54" shape="957.17,1350.38 956.75,1351.88 953.92,1352.64 949.05,1351.33"/>
    </edge>
    <edge id=":12_29" function="internal">
        <lane id=":12_29_0" index="0" speed="13.90" length="2.41" shape="955.34,1346.30 954.42,1346.21 953.21,1345.35"/>
    </edge>
    <edge id=":12_20" function="internal">
        <lane id=":12_20_0" index="0" speed="13.90" length="6.48" shape="950.27,1348.26 952.25,1348.79 953.40,1348.49 953.72,1347.34 953.21,1345.35"/>
    </edge>
    <edge id=":12_21" function="internal">
        <lane id=":12_21_0" index="0" speed="13.90" length="12.82" shape="950.27,1348.26 953.61,1349.10 956.59,1348.81 959.21,1347.39 961.47,1344.85"/>
    </edge>
    <edge id=":12_22" function="internal">
        <lane id=":12_22_0" index="0" speed="13.90" length="16.42" shape="950.27,1348.26 954.06,1349.44 958.23,1350.19 962.47,1350.45 966.43,1350.18"/>
    </edge>
    <edge id=":12_23" function="internal">
        <lane id=":12_23_0" index="0" speed="13.90" length="16.34" shape="950.27,1348.26 953.86,1349.95 957.46,1352.16 960.75,1354.77 963.41,1357.68"/>
    </edge>
    <edge id=":12_24" function="internal">
        <lane id=":12_24_0" index="0" speed="13.90" length="4.82" shape="950.27,1348.26 951.11,1349.49 951.19,1350.40 950.50,1351.02 949.05,1351.33"/>
    </edge>