<?xml version="1.0" encoding="UTF-8"?>

<!-- generated on Wed Feb 28 16:12:22 2018 by SUMO duarouter Version 0.31.0
<?xml version="1.0" encoding="UTF-8"?>

<configuration xmlns:xsi="http://www.w3.org/2001/XMLSchema-instance" xsi:noNamespaceSchemaLocation="http://sumo.dlr.de/xsd/duarouterConfiguration.xsd">

    <input>
        <net-file value="simulte.net.xml"/>
        <route-files value="trips.trips.xml"/>
    </input>

    <output>
        <output-file value="simulte.rou.xml"/>
    </output>

    <processing>
        <ignore-errors value="true"/>
    </processing>

    <time>
        <begin value="0"/>
        <end value="600.0"/>
    </time>

    <report>
        <no-warnings value="true"/>
        <no-step-log value="true"/>
    </report>

</configuration>
-->

<routes xmlns:xsi="http://www.w3.org/2001/XMLSchema-instance" xsi:noNamespaceSchemaLocation="http://sumo.dlr.de/xsd/routes_file.xsd">
    <vehicle id="0" depart="0.00">
        <route edges="-138 -25 17 -13 15 119 332 592 674"/>
    </vehicle>
    <vehicle id="1" depart="1.00">
        <route edges="-7 9 19 123 338 505 597 684"/>
    </vehicle>
    <vehicle id="2" depart="2.00">
        <route edges="-496 -361 -336 338 523 -1415 -1357 1494 -1447 -1427 1429 1523 1798 -1773"/>
    </vehicle>
    <vehicle id="3" depart="3.00">
        <route edges="-38 38 319 639 876 -1359 1363 1429 1517"/>
    </vehicle>
    <vehicle id="4" depart="4.00">
        <route edges="-639 -319 313 -326 -121 125 -570 -379"/>
    </vehicle>
    <vehicle id="5" depart="5.00">
        <route edges="365 -365 -344 -125 121 326 -313 -117 119 330 837"/>
    </vehicle>
    <vehicle id="6" depart="6.00">
        <route edges="-1523 -1429 -1363 1359 -876 -639 -319 -117 -15 -3 11 728 1029 1093 1342 -1342"/>
    </vehicle>
    <vehicle id="7" depart="7.00">
        <route edges="-19 17 -13 15 119 332 592 642 846"/>
    </vehicle>
    <vehicle id="8" depart="8.00">
        <route edges="608 -614 -579 -383 -128 -25 19 123 338 517 -588"/>
    </vehicle>
    <vehicle id="9" depart="9.00">
        <route edges="-336 338 523 -1415 -1357 1494 -1447 -1427 1429 1523 1798"/>
    </vehicle>
    <vehicle id="10" depart="10.00">
        <route edges="535 601 -585 -210 -25 17 38 319 639 876 -1535 -1533 -1524 1526 1883"/>
    </vehicle>
    <vehicle id="11" depart="11.00">
        <route edges="1027 -1027 -698 -11 9 19 125 344 365 533 1388 1464"/>
    </vehicle>
    <vehicle id="12" depart="12.00">
        <route edges="1771 -1775 -1501 -1429 -1363 1359 -876 -639 -319 -117 117"/>
    </vehicle>
    <vehicle id="13" depart="13.00">
        <route edges="1773 -1798 -1523 -1429 -1363 1359 -876 -639 -319 -38 -17 25 128 383 577 612"/>
    </vehicle>
    <vehicle id="14" depart="14.00">
        <route edges="-1775 -1501 -1429 -1363 1359 -876 -639 -319 325 588 -588"/>
    </vehicle>
    <vehicle id="15" depart="15.00">
        <route edges="-1201 -1027 -698 -11 9 19 123 338 505"/>
    </vehicle>
    <vehicle id="16" depart="16.00">
        <route edges="876 -876 -639 -319 -38 -17 25 128 383 577"/>
    </vehicle>
    <vehicle id="17" depart="17.00">
        <route edges="-589 -325 -117 119 332 592 642 846"/>
    </vehicle>
    <vehicle id="18" depart="18.00">
        <route edges="-25 17 38 319 639 876 -1359 1363 1429 1517 1797"/>
    </vehicle>
    <vehicle id="19" depart="19.00">
        <route edges="-597 -505 -338 -123 125 344 -349 -381"/>
    </vehicle>
    <vehicle id="20" depart="20.00">
        <route edges="326 -313 319 639 876 -1359 1363 1429 1523 -1523"/>
    </vehicle>
    <vehicle id="21" depart="21.00">
        <route edges="1523 -1523 -1429 -1363 1359 -876 -639 -319 -38 -17 25 128 383 579 618"/>
    </vehicle>
    <vehicle id="22" depart="22.00">
        <route edges="1494 -1494 1357 1415 -523 -338 -123 125 344 365 533 1388 -1391"/>
    </vehicle>
    <vehicle id="23" depart="23.00">
        <route edges="-1345 -1342 -1093 -1029 -728 -11 3 15 117 319 639 876 -1359 1363 1429 1523 1798 -1773"/>
    </vehicle>
    <vehicle id="24" depart="24.00">
        <route edges="-365 -344 -125 123 338 505 597 -597"/>
    </vehicle>
    <vehicle id="25" depart="25.00">
        <route edges="1767 1357 1415 -523 -338 -123 -19 25 128 381"/>
    </vehicle>
    <vehicle id="26" depart="26.00">
        <route edges="-126 -25 17 -13 15 119 332 592 642 846"/>
    </vehicle>
    <vehicle id="27" depart="27.00">
        <route edges="1431 1524 1533 1535 -876 -639 -319 -117 -15 -3 11 698 1027 -1027"/>
    </vehicle>
    <vehicle id="28" depart="28.00">
        <route edges="1499 -1499 -1429 -1363 1359 -876 -639 -319 325"/>
    </vehicle>
    <vehicle id="29" depart="29.00">
        <route edges="-126 -25 17 38 319 639 876 -1359 1363 1429 1501 -1501"/>
    </vehicle>
    <vehicle id="30" depart="30.00">
        <route edges="-1431 1447 1535 -876 -639 -319 -117 -15 -3 11 728 1029 1093"/>
    </vehicle>
    <vehicle id="31" depart="31.00">
        <route edges="128 -128 -25 19 123 338 523 -1415 -1357 1494"/>
    </vehicle>
    <vehicle id="32" depart="32.00">
        <route edges="-870 870 -679 333 -138 210 349 365 569 1391"/>
    </vehicle>
    <vehicle id="33" depart="33.00">
        <route edges="-589 -325 319 639 876 -1535 -1533 -1524 1526 1883 -1883"/>
    </vehicle>
    <vehicle id="34" depart="34.00">
        <route edges="-1363 1359 -876 -639 -319 -38 38"/>
    </vehicle>
    <vehicle id="35" depart="35.00">
        <route edges="730 -639 -319 -117 -15 -3 11 698 1027 1201"/>
    </vehicle>
    <vehicle id="36" depart="36.00">
        <route edges="-7 3 15 117 325 589 -1415"/>
    </vehicle>
    <vehicle id="37" depart="37.00">
        <route edges="523 -1415 -1357 1494 -1447 -1427 1429 1501 1774"/>
    </vehicle>
    <vehicle id="38" depart="38.00">
        <route edges="-614 -579 -383 -128 -25 17 -13 15 119 330 837 -674"/>
    </vehicle>
    <vehicle id="39" depart="39.00">
        <route edges="1499 -1499 -1429 1427 1447 -1494 1357 1415 -523 505 -504"/>
    </vehicle>
    <vehicle id="40" depart="40.00">
        <route edges="-1523 -1429 -1363 1359 -876 -639 -319 -117 -15 -3 11 728 1029 1093 1342"/>
    </vehicle>
    <vehicle id="41" depart="41.00">
        <route edges="-570 570 -125 121 326 -313 -117 119 332 592 650 848"/>
    </vehicle>
    <vehicle id="42" depart="42.00">
        <route edges="-614 -579 -383 -128 -25 17 38 319 639 876 -1359 1363 1429 1523 -1523"/>
    </vehicle>
    <vehicle id="43" depart="43.00">
        <route edges="1499 -1499 -1429 -1363 1359 -876 -639 -319 -38"/>
    </vehicle>
    <vehicle id="44" depart="44.00">
        <route edges="-848 -650 -592 -332 -119 117 325 588 -517 -338 336"/>
    </vehicle>
    <vehicle id="45" depart="45.00">
        <route edges="614 -614 -579 -383 -128 -25 17 38 319 639 876 -1535 -1533"/>
    </vehicle>
    <vehicle id="46" depart="46.00">
        <route edges="-1343 -1093 -1029 -728 -11 9 19 123 336 -336"/>
    </vehicle>
    <vehicle id="47" depart="47.00">
        <route edges="-585 -210 -25 17 -13 15 119 330 -330"/>
    </vehicle>
    <vehicle id="48" depart="48.00">
        <route edges="-1323 -882 -639 -319 -38 -17 25 128 383 579"/>
    </vehicle>
    <vehicle id="49" depart="49.00">
        <route edges="1345 -1345 -1342 -1093 -1029 -728 -11 3 15 117 319 639 876 -1535 -1447 1431"/>
    </vehicle>
    <vehicle id="50" depart="50.00">
        <route edges="880 1357 1415 -523 -338 -123 -19 25 138"/>
    </vehicle>
    <vehicle id="51" depart="51.00">
        <route edges="-64 38 319 639 876 -1359 1363 1429 1523 -1523"/>
    </vehicle>
    <vehicle id="52" depart="52.00">
        <route edges="128 -128 -25 17 -13 15 119 330 837 -674"/>
    </vehicle>
    <vehicle id="53" depart="53.00">
        <route edges="-1057 -589 -325 -117 -15 -3 11 728 1029 1093 1342 1345 1396"/>
    </vehicle>
    <vehicle id="54" depart="54.00">
        <route edges="-1524 1524 1533 -1494 1357 1415 -523 -338 -123 125 344 365 569 -569"/>
    </vehicle>
    <vehicle id="55" depart="55.00">
        <route edges="-1532 1524 1533 1535 -876 -639 -319 -38 -17 25 128 383 577 -577"/>
    </vehicle>
    <vehicle id="56" depart="56.00">
        <route edges="-579 -383 -128 -25 17 38 319 639 876 -1535 -1447 1447"/>
    </vehicle>
    <vehicle id="57" depart="57.00">
        <route edges="1447 1535 -876 -639 -319 -117 -15 -3 11 698 -698"/>
    </vehicle>
    <vehicle id="58" depart="58.00">
        <route edges="-1535 1535 -876 -639 -319 -117 -15 -3 11 728 1029 1093 1342 1345"/>
    </vehicle>
    <vehicle id="59" depart="59.00">
        <route edges="-625 -319 -117 -15 -3 11 728 1029 -1005 -612"/>
    </vehicle>
    <vehicle id="60" depart="60.00">
        <route edges="-1391 -569 -365 -344 -125 -19"/>
    </vehicle>
    <vehicle id="61" depart="61.00">
        <route edges="-867 -618 -579 -383 -128 -25 19 123 338 505 597 684"/>
    </vehicle>
    <vehicle id="62" depart="62.00">
        <route edges="-650 674 -837 -732 734 1033 1323 1373 1441"/>
    </vehicle>
    <vehicle id="63" depart="63.00">
        <route edges="-1199 -1027 -698 -11 3 15 117 319 639 876 -1359 1363 1429 1501 1774"/>
    </vehicle>
    <vehicle id="64" depart="64.00">
        <route edges="1883 -1883 -1526 1524 1533 1535 -876 -639 -319 -38 -17 25 138 -333"/>
    </vehicle>
    <vehicle id="65" depart="65.00">
        <route edges="1798 -1798 -1523 -1429 -1363 -1323 -1033 -734 732 837 -674 650"/>
    </vehicle>
    <vehicle id="66" depart="66.00">
        <route edges="-1342 -1093 -1029 -728 -11 3 15 117 319 639 876 -1359 1363 1429 1523 1882"/>
    </vehicle>
    <vehicle id="67" depart="67.00">
        <route edges="535 601 -585 -210 -25 17 38 319 639 876 -1359 1363 1429 1523 -1523"/>
    </vehicle>
    <vehicle id="68" depart="68.00">
        <route edges="-128 -25 17 38 319 639 876 -1359 1363 1429 1517 1797"/>
    </vehicle>
    <vehicle id="69" depart="69.00">
        <route edges="1526 -1526 1524 1533 1535 -876 -639 -319 -117 -15"/>
    </vehicle>
    <vehicle id="70" depart="70.00">
        <route edges="1526 -1526 1524 1533 1535 -876 -639 -319 -117 -15 -3 11"/>
    </vehicle>
    <vehicle id="71" depart="71.00">
        <route edges="-601 601 -585 -210 -25 17 38 319 639 876 -1535 -1533 -1524 1526 1883"/>
    </vehicle>
    <vehicle id="72" depart="72.00">
        <route edges="-1523 -1429 -1363 1359 -876 -639 -319 313 -326 -121 125 344 -344"/>
    </vehicle>
    <vehicle id="73" depart="73.00">
        <route edges="-1343 -1093 -1029 -728 -11 3 15 119 330"/>
    </vehicle>
    <vehicle id="74" depart="74.00">
        <route edges="-569 -365 -349 -381 383 577 612 1011 1345 1404"/>
    </vehicle>
    <vehicle id="75" depart="75.00">
        <route edges="1429 -1429 -1363 1359 -876 -639 -319 -38 64"/>
    </vehicle>
    <vehicle id="76" depart="76.00">
        <route edges="-614 -579 -383 -128 -25 17 38 319 639 876 -1535 -1494"/>
    </vehicle>
    <vehicle id="77" depart="77.00">
        <route edges="-1441 1447 1535 -876 -639 -319 -38 -17 25 128 383 577 -577"/>
    </vehicle>
    <vehicle id="78" depart="78.00">
        <route edges="1093 -1093 -1029 -728 -11 9 19 123 338 505 597"/>
    </vehicle>
    <vehicle id="79" depart="79.00">
        <route edges="117 319 639 876 -1535 -1533 -1441"/>
    </vehicle>
    <vehicle id="80" depart="80.00">
        <route edges="117 313 -326 -121 125 344 365 533 1388 1464"/>
    </vehicle>
    <vehicle id="81" depart="81.00">
        <route edges="-330 -119 -15 13 -17 25 210 349"/>
    </vehicle>
    <vehicle id="82" depart="82.00">
        <route edges="-1532 1524 1533 -1494 1357 1415 -523 -338 -123 123"/>
    </vehicle>
    <vehicle id="83" depart="83.00">
        <route edges="-698 -11 3 15 117 319 639 880 -1767"/>
    </vehicle>
    <vehicle id="84" depart="84.00">
        <route edges="-1427 -1363 1359 -876 -639 -319 -117 -15 -3 11 728 870"/>
    </vehicle>
    <vehicle id="85" depart="85.00">
        <route edges="-1345 -1342 -1093 -1029 -728 -11 3 15 117 319 639 876 -1359 1363 1429 1501 1775 -1771"/>
    </vehicle>
    <vehicle id="86" depart="86.00">
        <route edges="592 674 -837 -732 734 1033 1323 1363 1429 1517 1797"/>
    </vehicle>
    <vehicle id="87" depart="87.00">
        <route edges="9 17 38 319 639 876 -1359 1363 -1363"/>
    </vehicle>
    <vehicle id="88" depart="88.00">
        <route edges="1431 1524 1533 1535 -876 -639 -319 -38 -17 19"/>
    </vehicle>
    <vehicle id="89" depart="89.00">
        <route edges="-1891 -1526 1524 1533 1535 -876 -639 625 732 837 -674 642 -642"/>
    </vehicle>
    <vehicle id="90" depart="90.00">
        <route edges="1033 -882 880 1357 1415 -523 505 597 -597"/>
    </vehicle>
    <vehicle id="91" depart="91.00">
        <route edges="-1357 -880 -639 625 732 837 -674"/>
    </vehicle>
    <vehicle id="92" depart="92.00">
        <route edges="-533 -365 -344 -125 121 326 -313 319 639 876 -1359 1363 1429 1523 1798 -1773"/>
    </vehicle>
    <vehicle id="93" depart="93.00">
        <route edges="-848 -650 -592 -332 -119 -15 -3 11 728 1029 -1005 -612 608"/>
    </vehicle>
    <vehicle id="94" depart="94.00">
        <route edges="837 -837 -330 -119 -15 -3 11 728 1029 -1005 -612 612"/>
    </vehicle>
    <vehicle id="95" depart="95.00">
        <route edges="-642 674 -837 -732 -625 639 880 1494"/>
    </vehicle>
    <vehicle id="96" depart="96.00">
        <route edges="517 -588 -325 -117 -15 -3 11 698 1027 1199 -1199"/>
    </vehicle>
    <vehicle id="97" depart="97.00">
        <route edges="-383 -128 -25 17 38 -117"/>
    </vehicle>
    <vehicle id="98" depart="98.00">
        <route edges="1323 1359 -876 -639 -319 -38 -17 25 138 -138"/>
    </vehicle>
    <vehicle id="99" depart="99.00">
        <route edges="-381 -128 -25 17 38 319 639 876 -1535 -1447 1431"/>
    </vehicle>
    <vehicle id="100" depart="100.00">
        <route edges="1415 -589 -325 -117 119 332 592 650 848"/>
    </vehicle>
    <vehicle id="101" depart="101.00">
        <route edges="-876 -639 -319 313 -326 -121 125"/>
    </vehicle>
    <vehicle id="102" depart="102.00">
        <route edges="-569 -365 -344 -125 123 338 505 597 684"/>
    </vehicle>
    <vehicle id="103" depart="103.00">
        <route edges="1499 -1499 -1429 -1363 1359 -876 -639 -319 -38 -17 -9"/>
    </vehicle>
    <vehicle id="104" depart="104.00">
        <route edges="-601 601 -585 -210 -25 17 38 319 639 876 -1535 -1447 1447"/>
    </vehicle>
    <vehicle id="105" depart="105.00">
        <route edges="1363 -1363 1359 -876 -639 -319 313 -326 -121"/>
    </vehicle>
    <vehicle id="106" depart="106.00">
        <route edges="614 -614 -579 -383 -128 -25 19 123 338 505"/>
    </vehicle>
    <vehicle id="107" depart="107.00">
        <route edges="-121 121 326 -313 319 639 876 -1535"/>
    </vehicle>
    <vehicle id="108" depart="108.00">
        <route edges="1415 -589 -325 -117 -15 -3 7 356"/>
    </vehicle>
    <vehicle id="109" depart="109.00">
        <route edges="674 -837 -732 734 1033 1323 1363 1429 1499 -1499"/>
    </vehicle>
    <vehicle id="110" depart="110.00">
        <route edges="1199 -1199 -1027 -698 -11 3 15 117 319 639 876 -1535 -1533 -1524 1524"/>
    </vehicle>
    <vehicle id="111" depart="111.00">
        <route edges="-9 3 15 117 319 639 876 -1535 -1533"/>
    </vehicle>
    <vehicle id="112" depart="112.00">
        <route edges="19 121 326 -313 319 639 876 -1359 1373"/>
    </vehicle>
    <vehicle id="113" depart="113.00">
        <route edges="19 -19 -9 11 728 1029 1093 1342 1345 1404"/>
    </vehicle>
    <vehicle id="114" depart="114.00">
        <route edges="-837 -330 -119 -15 13 -17 25 128 -128"/>
    </vehicle>
    <vehicle id="115" depart="115.00">
        <route edges="1093 -1093 -1029 -728 -11 3 15 117 319 639 876 -1535 -1447"/>
    </vehicle>
    <vehicle id="116" depart="116.00">
        <route edges="-597 -505 -338 -123 -19 25 128 383 579 614 -614"/>
    </vehicle>
    <vehicle id="117" depart="117.00">
        <route edges="-1532 1524 1533 1535 -876 -639 625 732 837 -837"/>
    </vehicle>
    <vehicle id="118" depart="118.00">
        <route edges="-728 -11 3 15 117 319 639 876 -1535 -1533 -1524 1524"/>
    </vehicle>
    <vehicle id="119" depart="119.00">
        <route edges="1767 1494 -1447 -1427 1429 1523 1798"/>
    </vehicle>
    <vehicle id="120" depart="120.00">
        <route edges="-121 121 326 -313 319 639 876 -1359 1373"/>
    </vehicle>
    <vehicle id="121" depart="121.00">
        <route edges="-686 -597 -505 517 -588 -325 -117 -15 15"/>
    </vehicle>
    <vehicle id="122" depart="122.00">
        <route edges="-336 338 517 -588 -325 319 625 734"/>
    </vehicle>
    <vehicle id="123" depart="123.00">
        <route edges="1363 -1363 1359 -876 -639 -319 -38 -17 25 128 383 579 614 -614"/>
    </vehicle>
    <vehicle id="124" depart="124.00">
        <route edges="601 -585 -210 -25 17 38 319"/>
    </vehicle>
    <vehicle id="125" depart="125.00">
        <route edges="-1891 -1526 1524 1533 1535 -876 -639 625 732 837 -674 642 -642"/>
    </vehicle>
    <vehicle id="126" depart="126.00">
        <route edges="1359 -876 -639 -319 -117 -15 -3 11 728 1029 1093"/>
    </vehicle>
    <vehicle id="127" depart="127.00">
        <route edges="-608 612 1005 -1029 -728 -11 3 15 119"/>
    </vehicle>
    <vehicle id="128" depart="128.00">
        <route edges="-625 -319 -38 -17 25 128 383 577 612"/>
    </vehicle>
    <vehicle id="129" depart="129.00">
        <route edges="-1447 1447 1535 -876 -639 -319 -38 -17 25 128 383 577 608"/>
    </vehicle>
    <vehicle id="130" depart="130.00">
        <route edges="-642 -592 -332 -119 117 313"/>
    </vehicle>
    <vehicle id="131" depart="131.00">
        <route edges="-569 -365 -344 -125 121 326 -313 319 639 876 -1359 1363 1429 1523 -1523"/>
    </vehicle>
    <vehicle id="132" depart="132.00">
        <route edges="-1431 1447 -1494 1357 1415 -523 505 597"/>
    </vehicle>
    <vehicle id="133" depart="133.00">
        <route edges="-505 523 -1415 -1357 1494 1535 -1359"/>
    </vehicle>
    <vehicle id="134" depart="134.00">
        <route edges="-1323 -882 -639 -319 -38 -17 25 128 383 577 608"/>
    </vehicle>
    <vehicle id="135" depart="135.00">
        <route edges="-698 -11 3 15 117 319 639 876 -1359 1363 1429 1523"/>
    </vehicle>
    <vehicle id="136" depart="136.00">
        <route edges="-15 13 -17 25 128 383 579 613"/>
    </vehicle>
    <vehicle id="137" depart="137.00">
        <route edges="1535 -876 -639 -319 -117 -15 -3 7 356 -348"/>
    </vehicle>
    <vehicle id="138" depart="138.00">
        <route edges="-579 -383 -128 -25 17 -13 15"/>
    </vehicle>
    <vehicle id="139" depart="139.00">
        <route edges="1359 -876 -639 -319 -38 -17 25 128 383 579 618 -618"/>
    </vehicle>
    <vehicle id="140" depart="140.00">
        <route edges="-330 -119 -15 -3 11 728 1029 1093"/>
    </vehicle>
    <vehicle id="141" depart="141.00">
        <route edges="837 -837 -330 -119 117 325 588 -517 505 -504"/>
    </vehicle>
    <vehicle id="142" depart="142.00">
        <route edges="679 -696 -11 3 15 117 319 639 882 -1033"/>
    </vehicle>
    <vehicle id="143" depart="143.00">
        <route edges="-64 38 325 589 -1415 1425 1483"/>
    </vehicle>
    <vehicle id="144" depart="144.00">
        <route edges="-1775 -1501 -1429 -1363 -1323 -1033 -734 732 837 -674 642 846"/>
    </vehicle>
    <vehicle id="145" depart="145.00">
        <route edges="349 -344 -125 121 326 -313 -117 119 330 -732"/>
    </vehicle>
    <vehicle id="146" depart="146.00">
        <route edges="-336 338 517 -588 -325 -117 119 332 592 642 840"/>
    </vehicle>
    <vehicle id="147" depart="147.00">
        <route edges="-1483 -1425 1415 -589 -325 -117 119 332 592 -592"/>
    </vehicle>
    <vehicle id="148" depart="148.00">
        <route edges="25 -25 17 38 319 639 876 -1359 1363 1429 1499 1771"/>
    </vehicle>
    <vehicle id="149" depart="149.00">
        <route edges="210 -210 -25 17 -13 15 119 330 837 -674"/>
    </vehicle>
    <vehicle id="150" depart="150.00">
        <route edges="696 -696 -11 3 15 117 319 639 876 -1359 1363 1429 1501 1774"/>
    </vehicle>
    <vehicle id="151" depart="151.00">
        <route edges="348 -356 -7 3 15 117 319 639 880 -1767"/>
    </vehicle>
    <vehicle id="152" depart="152.00">
        <route edges="349 -344 -125 123 338 523 -1415 -1357 1494 -1447 1441"/>
    </vehicle>
    <vehicle id="153" depart="153.00">
        <route edges="-1323 -882 880 1357 1415 -523 505 597 684"/>
    </vehicle>
    <vehicle id="154" depart="154.00">
        <route edges="876 -1535 -1494 1357 1415 -523 -338 336 361"/>
    </vehicle>
    <vehicle id="155" depart="155.00">
        <route edges="-730 -623 -319 -38 -17 25 128 383"/>
    </vehicle>
    <vehicle id="156" depart="156.00">
        <route edges="-613 -579 -383 -128 -25 17 38 319 639 876 -1535 -1533 1533"/>
    </vehicle>
    <vehicle id="157" depart="157.00">
        <route edges="-684 -597 -505 523 -1415 -1357 1494 1535 -1359"/>
    </vehicle>
    <vehicle id="158" depart="158.00">
        <route edges="-7 9 19 123 338 505 597 686"/>
    </vehicle>
    <vehicle id="159" depart="159.00">
        <route edges="1773 -1798 -1523 -1429 1427 1447 -1494 1357 1415 -523 505 -505"/>
    </vehicle>
    <vehicle id="160" depart="160.00">
        <route edges="639 876 -1535 -1533 -1524 1526 1883"/>
    </vehicle>
    <vehicle id="161" depart="161.00">
        <route edges="625 -625 -319 -38 -17 25 210 585 -613"/>
    </vehicle>
    <vehicle id="162" depart="162.00">
        <route edges="-569 -365 -344 -125 121 326 -313 -117 119 332 592 650"/>
    </vehicle>
    <vehicle id="163" depart="163.00">
        <route edges="117 319 639 876 -1535 -1533 -1524 1532"/>
    </vehicle>
    <vehicle id="164" depart="164.00">
        <route edges="-592 -332 -119 117 325 589 -1415 1415"/>
    </vehicle>
    <vehicle id="165" depart="165.00">
        <route edges="-730 -623 -319 -117 -15 -3 11 728 1029"/>
    </vehicle>
    <vehicle id="166" depart="166.00">
        <route edges="1441 1533 -1494 1357 1415 -523 -338 -123 123"/>
    </vehicle>
    <vehicle id="167" depart="167.00">
        <route edges="-1199 -1027 -698 -11 9 19 125 344 379"/>
    </vehicle>
    <vehicle id="168" depart="168.00">
        <route edges="1533 -1494 1357 1415 -523 -338 -123 125 344 365 533 1388 1464"/>
    </vehicle>
    <vehicle id="169" depart="169.00">
        <route edges="1033 -882 -639 -319 -38 -17 25"/>
    </vehicle>
    <vehicle id="170" depart="170.00">
        <route edges="-533 -365 -344 -125 121 326 -313 319 639 876 -1359 1373"/>
    </vehicle>
    <vehicle id="171" depart="171.00">
        <route edges="-138 -25 17 38 319 639 876 -1359 1363 1429 1501 1774"/>
    </vehicle>
    <vehicle id="172" depart="172.00">
        <route edges="-696 -11 3 15 117 319 639 876 -1535 -1533 -1441"/>
    </vehicle>
    <vehicle id="173" depart="173.00">
        <route edges="-210 -25 17 38 319 639 882 -1033"/>
    </vehicle>
    <vehicle id="174" depart="174.00">
        <route edges="-1524 1524 1533 -1494 1357 1415 -523"/>
    </vehicle>
    <vehicle id="175" depart="175.00">
        <route edges="-121 121 326 -313 319 639 876 -1359 1363 1429 1523"/>
    </vehicle>
    <vehicle id="176" depart="176.00">
        <route edges="505 -505 523 -1415 -1357 1494 -1447 -1427 1429 1523 1798 -1773"/>
    </vehicle>
    <vehicle id="177" depart="177.00">
        <route edges="1343 -1199 -1027 -698 -11 3 15 119 332 592 642"/>
    </vehicle>
    <vehicle id="178" depart="178.00">
        <route edges="-1483 -1425 1415 -589 -325 -117 119 330"/>
    </vehicle>
    <vehicle id="179" depart="179.00">
        <route edges="-504 -336 -123 125 344 -349 585 -601"/>
    </vehicle>
    <vehicle id="180" depart="180.00">
        <route edges="-1798 -1523 -1429 -1363 1359 -876 -639 -319 313 -326 -121 125 344 379"/>
    </vehicle>
    <vehicle id="181" depart="181.00">
        <route edges="601 -585 -210 -25 17 38 319 639 876 -1359 1363 1429 1523"/>
    </vehicle>
    <vehicle id="182" depart="182.00">
        <route edges="-1483 -1425 1415 -523 -338 -123 -19 25 128 383 579 613"/>
    </vehicle>
    <vehicle id="183" depart="183.00">
        <route edges="-585 349 -344 -125 123 338 523 -1415 1425 1483"/>
    </vehicle>
    <vehicle id="184" depart="184.00">
        <route edges="-1359 1359 -876 -639 -319 -38 -17 19"/>
    </vehicle>
    <vehicle id="185" depart="185.00">
        <route edges="-1517 -1429 -1363 1359 -876 -639 -319 313 -326 -121 125 -570 570"/>
    </vehicle>
    <vehicle id="186" depart="186.00">
        <route edges="-332 -119 -15 13 -17 25 128 383 579 614 -608"/>
    </vehicle>
    <vehicle id="187" depart="187.00">
        <route edges="1774 -1523 -1429 1427 1447 -1494 1357 1415 -523 505 -505"/>
    </vehicle>
    <vehicle id="188" depart="188.00">
        <route edges="1524 1533 1535 -876 -639 -319 -38 -17 25 138 348"/>
    </vehicle>
    <vehicle id="189" depart="189.00">
        <route edges="1033 -882 -639 -319 -38 -17 25 210 349"/>
    </vehicle>
    <vehicle id="190" depart="190.00">
        <route edges="365 -365 -344 -125 123 338 523 -1415 -1357 1494"/>
    </vehicle>
    <vehicle id="191" depart="191.00">
        <route edges="-332 330 -732 734 1033 1323 1363 1429 1501 1775"/>
    </vehicle>
    <vehicle id="192" depart="192.00">
        <route edges="64 326 -313 319 639 876 -1535 -1533 -1524 1526"/>
    </vehicle>
    <vehicle id="193" depart="193.00">
        <route edges="1033 -882 -639 -319 -117 -15 -3 11 728 1029 -1005 -612"/>
    </vehicle>
    <vehicle id="194" depart="194.00">
        <route edges="-1093 -1029 -728 -11 3 15 117 319 639 876 -1359 1363 1427"/>
    </vehicle>
    <vehicle id="195" depart="195.00">
        <route edges="492 570 -125 121 326 -313 319 639"/>
    </vehicle>
    <vehicle id="196" depart="196.00">
        <route edges="-1783 -1517 -1429 -1363 1359 -876 -639 -319 -38 -13"/>
    </vehicle>
    <vehicle id="197" depart="197.00">
        <route edges="579 -579 -383 -128 -25 17 38 319 639 876 -1359 1363 1429 1501 1775 -1775"/>
    </vehicle>
    <vehicle id="198" depart="198.00">
        <route edges="-1357 -880 -639 -319 -117 -15 -3 11 698 1027 -1027"/>
    </vehicle>
    <vehicle id="199" depart="199.00">
        <route edges="-1773 -1501 -1429 -1363 1359 -876 -639 -319 -117 -15 -3 11"/>
    </vehicle>
    <vehicle id="200" depart="200.00">
        <route edges="-125 123 338 523 -1415 -1357 1494 -1447 1441"/>
    </vehicle>
    <vehicle id="201" depart="201.00">
        <route edges="121 326 -313 319 639 876 -1359 1373"/>
    </vehicle>
    <vehicle id="202" depart="202.00">
        <route edges="-1323 -882 -639 -319 -117 -15 -3 11 728 1029 1093 1342 -1342"/>
    </vehicle>
    <vehicle id="203" depart="203.00">
        <route edges="-608 -577 -383 -128 -25 17 38 319 639 882"/>
    </vehicle>
    <vehicle id="204" depart="204.00">
        <route edges="-210 -25 17 38 319 639 876 -1359 1363 1429 1523 1798 -1773"/>
    </vehicle>
    <vehicle id="205" depart="205.00">
        <route edges="-1199 -1027 -698 -11 3 15 117 319 639 880 -1767"/>
    </vehicle>
    <vehicle id="206" depart="206.00">
        <route edges="1499 -1499 -1429 -1363 1359 -876 -639 -319 -38 -17 25 128 383 579 618 867"/>
    </vehicle>
    <vehicle id="207" depart="207.00">
        <route edges="625 -625 -319 -117 -15 -3 11 728 1029 1093 1342 -1011"/>
    </vehicle>
    <vehicle id="208" depart="208.00">
        <route edges="-1532 1524 1533 -1494 1357 1415 -523 -338 336 -336"/>
    </vehicle>
    <vehicle id="209" depart="209.00">
        <route edges="-336 338 517 -588 -325 319 621"/>
    </vehicle>
    <vehicle id="210" depart="210.00">
        <route edges="1323 1359 -876 -639 -319 -38 -17 25 126"/>
    </vehicle>
    <vehicle id="211" depart="211.00">
        <route edges="116 -313 319 639 882 1323"/>
    </vehicle>
    <vehicle id="212" depart="212.00">
        <route edges="-1532 1524 1533 1535 -876 -639 -319 -117 119 332 592"/>
    </vehicle>
    <vehicle id="213" depart="213.00">
        <route edges="-1345 -1342 -1093 -1029 -728 -11 3 15 119 332 -332"/>
    </vehicle>
    <vehicle id="214" depart="214.00">
        <route edges="882 -882 -639 -319 -117 -15 -3 11 728 1029 -1005"/>
    </vehicle>
    <vehicle id="215" depart="215.00">
        <route edges="-1526 1524 1533 1535 -876 -639 625 732 837 -674 642 840"/>
    </vehicle>
    <vehicle id="216" depart="216.00">
        <route edges="-837 -330 -119 -15 -3 7 333 -138"/>
    </vehicle>
    <vehicle id="217" depart="217.00">
        <route edges="612 -612 -577 -383 381 349 365 533 1388"/>
    </vehicle>
    <vehicle id="218" depart="218.00">
        <route edges="650 -650 674 -837 -732 734 1033 1323 1363 1429 1501 1775"/>
    </vehicle>
    <vehicle id="219" depart="219.00">
        <route edges="505 -505 -338 -123 125 344 365 569"/>
    </vehicle>
    <vehicle id="220" depart="220.00">
        <route edges="-1883 -1526 1524 1533 -1494 1357 1425"/>
    </vehicle>
    <vehicle id="221" depart="221.00">
        <route edges="-848 -650 674 -837 -732 -625 623"/>
    </vehicle>
    <vehicle id="222" depart="222.00">
        <route edges="1499 -1499 -1429 -1363 1359 -876 -639 -319 -38 -17 25 210 585 -601 601"/>
    </vehicle>
    <vehicle id="223" depart="223.00">
        <route edges="-597 -505 -338 -123 -19 25 128 383 577 608"/>
    </vehicle>
    <vehicle id="224" depart="224.00">
        <route edges="1343 -1199 -1027 -698 -11 9 19 123 336"/>
    </vehicle>
    <vehicle id="225" depart="225.00">
        <route edges="-333 333 -138 126 -570 -492 496"/>
    </vehicle>
    <vehicle id="226" depart="226.00">
        <route edges="588 -588 -325 -117 -15 -3 11 698 1027 1199"/>
    </vehicle>
    <vehicle id="227" depart="227.00">
        <route edges="533 -533 -365 -344 -125 121 326 -313 -117 119 332 592 -592"/>
    </vehicle>
    <vehicle id="228" depart="228.00">
        <route edges="210 -210 -25 17 38 319 639 876 -1359 1363 1427"/>
    </vehicle>
    <vehicle id="229" depart="229.00">