<?xml version="1.0" encoding="UTF-8"?>

<!-- generated on Mon Feb 26 13:49:33 2018 by SUMO netconvert Version 0.29.0
<?xml version="1.0" encoding="UTF-8"?>

<configuration xmlns:xsi="http://www.w3.org/2001/XMLSchema-instance" xsi:noNamespaceSchemaLocation="http://sumo.dlr.de/xsd/netconvertConfiguration.xsd">

    <input>
        <node-files value="LOS.nod.xml"/>
        <edge-files value="LOS.edg.xml"/>
    </input>

    <output>
        <output-file value="LOS.net.xml"/>
    </output>

</configuration>
-->

<net version="0.27" xmlns:xsi="http://www.w3.org/2001/XMLSchema-instance" xsi:noNamespaceSchemaLocation="http://sumo.dlr.de/xsd/net_file.xsd">

    <location netOffset="500.00,-10.00" convBoundary="0.00,0.00,1000.00,0.00" origBoundary="-500.000000,0.000000,500.000000,0.000000" projParameter="+proj=utm +zone=22 +ellps=WGS84 + datum=WGS84 +units=m +no_defs"/>

    <edge id=":1_0" function="internal">
        <lane id=":1_0_0" index="0" speed="13.90" length="7.45" width="5.00" shape="0.00,2.55 -1.91,1.27 -2.55,0.00 -1.91,-1.27 0.00,-2.55"/>
    </edge>
    <edge id=":2_0" function="internal">
        <lane id=":2_0_0" index="0" speed="13.90" length="7.45" width="5.00" shape="1000.00,-2.55 1001.91,-1.27 1002.55,0.00 1001.91,1.27 1000.00,2.55"/>
    </edge>

    <edge id="a" from="1" to="2" priority="-1">
        <lane id="a_0" index="0" speed="13.90" length="1000.00" width="5.00" shape="0.00,-2.55 1000.00,-2.55">
            <neigh lane="b_0"/>
        </lane>
    </edge>
    <edge id="b" from="2" to="1" priority="-1">
        <lane id="b_0" index="0" speed="13.90" length="1000.00" width="5.00" shape="1000.00,2.55 0.00,2.55">
            <neigh lane="a_0"/>
        </lane>
    </edge>

    <junction id="1" type="priority" x="0.00" y="0.00" incLanes="b_0" intLanes=":1_0_0" shape="0.00,-0.05 0.00,5.05 0.00,0.05">
        <request index="0" response="0" foes="0" cont="0"/>
    </junction>
    <junction id="2" type="priority" x="1000.00" y="0.00" incLanes="a_0" intLanes=":2_0_0" shape="1000.00,0.05 1000.00,-5.05 1000.00,-0.05">
        <request index="0" response="0" foes="0" cont="0"/>
    </junction>

    <connection from="a" to="b" fromLane="0" toLane="0" via=":2_0_0" dir="t" state="M"/>
    <connection from="b" to="a" fromLane="0" toLane="0" via=":1_0_0" dir="t" state="M"/>

    <connection from=":1_0" to="a" fromLane="0" toLane="0" dir="s" state="M"/>
    <connection from=":2_0" to="b" fromLane="0" toLane="0" dir="s" state="M"/>

</net>
