<routes>
    <vehicle id="1" depart="0.0">
        <route edges="a"/>
    </vehicle>

    <vehicle id="2" depart="0.0">
        <route edges="b"/>
    </vehicle>
</routes>
