<?xml version="1.0" encoding="UTF-8"?>

<!-- generated on So 16 Sep 2018 23:14:26 CEST by Netedit Version 0.32.0
<?xml version="1.0" encoding="UTF-8"?>

<configuration xmlns:xsi="http://www.w3.org/2001/XMLSchema-instance" xsi:noNamespaceSchemaLocation="http://sumo.dlr.de/xsd/netconvertConfiguration.xsd">

    <input>
        <sumo-net-file value="NLOSv.net.xml"/>
    </input>

    <output>
        <output-file value="NLOSv.net.xml"/>
    </output>

    <processing>
        <no-turnarounds value="true"/>
        <offset.disable-normalization value="true"/>
        <lefthand value="false"/>
        <junctions.corner-detail value="0"/>
        <rectangular-lane-cut value="false"/>
        <walkingareas value="false"/>
    </processing>

    <visualisation>
        <registry-viewport value="true"/>
    </visualisation>

</configuration>
-->

<net version="0.27" xmlns:xsi="http://www.w3.org/2001/XMLSchema-instance" xsi:noNamespaceSchemaLocation="http://sumo.dlr.de/xsd/net_file.xsd">

    <location netOffset="500.00,-10.00" convBoundary="0.00,0.00,500.00,0.00" origBoundary="-500.000000,0.000000,500.000000,0.000000" projParameter="+proj=utm +zone=22 +ellps=WGS84 + datum=WGS84 +units=m +no_defs"/>

    <edge id="a" from="1" to="2" priority="-1">
        <lane id="a_0" index="0" speed="36.11" length="500.00" width="3.00" shape="0.00,-4.65 500.00,-4.65"/>
        <lane id="a_1" index="1" speed="36.11" length="500.00" width="3.00" shape="0.00,-1.55 500.00,-1.55"/>
    </edge>
    <edge id="b" from="2" to="1" priority="-1">
        <lane id="b_0" index="0" speed="36.11" length="500.00" width="3.00" shape="500.00,4.65 0.00,4.65"/>
        <lane id="b_1" index="1" speed="36.11" length="500.00" width="3.00" shape="500.00,1.55 0.00,1.55"/>
    </edge>

    <junction id="1" type="dead_end" x="0.00" y="0.00" incLanes="b_0 b_1" intLanes="" shape="0.00,-0.05 0.00,6.15 0.00,0.05"/>
    <junction id="2" type="dead_end" x="500.00" y="0.00" incLanes="a_0 a_1" intLanes="" shape="500.00,0.05 500.00,-6.15 500.00,-0.05"/>

</net>
