<?xml version="1.0" encoding="UTF-8"?>

<!-- generated on 2025-03-26 18:09:09 by Eclipse SUMO netedit Version 1.22.0
-->

<additional xmlns:xsi="http://www.w3.org/2001/XMLSchema-instance" xsi:noNamespaceSchemaLocation="http://sumo.dlr.de/xsd/additional_file.xsd">
    <!-- Shapes -->
    <poly id="building_0" type="building" color="172,187,173" fill="1" layer="0.00" shape="716.770000,608.580000 717.600000,658.160000 746.820000,658.440000 746.820000,607.610000 716.770000,608.580000"/>
</additional>
