<?xml version='1.0' encoding='UTF-8'?>
<!--generated on 2020-03-04 18:25:00 by create_sumo_vtypes.py-->

<routes>
	<vType id="vType_0" minGap="2.00" speedFactor="normc(1.00,0.00)" vClass="passenger" carFollowModel="IDMM" tau="0.4"/>
	<vType id="DEFAULT_VEHTYPE" minGap="2.50" tau="1.0"  color="255,255,255" Class="passenger" accel="0.5"/>
	 <flow id="flow_0" begin="0.00" departLane="2" departSpeed="0" departPos="100" from="-14.0.00" to="-30.0.00"  end="500.00" vehsPerHour="10.00" type="DEFAULT_VEHTYPE"/>
	 <flow id="flow_1" begin="0.00" departLane="2" departSpeed="0" departPos="100" from="-39.0.00" to="5.0.00"  end="500.00" vehsPerHour="10.00" type="DEFAULT_VEHTYPE"/>
</routes>