<?xml version="1.0" encoding="utf-8"?>

<configuration>
    <input>
        <net-file value="ingolstadt-north-netedit.net.xml" />
        <route-files value="ingolstadt-north.rou-self.xml" />
        <additional-files value="ingolstadt-north.poly.xml, vtype.add.xml"/>
    </input>
    <processing>
        <lateral-resolution value="0.5" />
    </processing>
    <time>
        <step-length value="0.1" />
    </time>
</configuration>
