<?xml version="1.0" encoding="UTF-8"?>

<!-- generated on Fri Nov  4 15:07:11 2016 by SUMO polyconvert Version 0.26.0
<?xml version="1.0" encoding="UTF-8"?>

<configuration xmlns:xsi="http://www.w3.org/2001/XMLSchema-instance" xsi:noNamespaceSchemaLocation="http://sumo.dlr.de/xsd/polyconvertConfiguration.xsd">

    <input>
        <net-file value="ingolstadt-north.net.xml"/>
        <osm-files value="ingolstadt-north.osm"/>
        <osm.keep-full-type value="true"/>
        <type-file value="osmPolyconvert.typ.xml"/>
    </input>

    <output>
        <output-file value="ingolstadt-north.poly.xml"/>
    </output>

    <projection>
        <proj.utm value="true"/>
    </projection>

    <pruning>
        <prune.in-net value="true"/>
    </pruning>

    <processing>
        <poi-layer-offset value="5"/>
    </processing>

</configuration>
-->

<additional xmlns:xsi="http://www.w3.org/2001/XMLSchema-instance" xsi:noNamespaceSchemaLocation="http://sumo.dlr.de/xsd/additional_file.xsd">
    <location netOffset="-677864.29,-5403818.27" convBoundary="-24301.94,-4347.82,13187.14,3778.93" origBoundary="11.088266,48.729252,11.600582,48.795040" projParameter="+proj=utm +zone=32 +ellps=WGS84 +datum=WGS84 +units=m +no_defs"/>

    <poly id="101067672" type="building.yes" color="255,230,230" fill="1" layer="-1.00" shape="1063.18,1732.14 1125.97,1749.89 1123.19,1759.69 1060.40,1741.95 1063.18,1732.14"/>
    <poly id="101067676" type="building.yes" color="255,230,230" fill="1" layer="-1.00" shape="1114.55,1768.85 1125.96,1770.96 1119.50,1805.72 1108.09,1803.60 1114.55,1768.85"/>
    <poly id="101238052" type="building.yes" color="255,230,230" fill="1" layer="-1.00" shape="655.45,278.38 667.17,284.76 692.42,298.37 697.68,288.71 660.72,268.71 655.45,278.38"/>
    <poly id="104022171" type="building.yes" color="255,230,230" fill="1" layer="-1.00" shape="1073.76,1787.81 1076.46,1777.76 1018.16,1761.88 1015.46,1771.95 1073.76,1787.81"/>
    <poly id="104173145" type="building.yes" color="255,230,230" fill="1" layer="-1.00" shape="918.07,1468.98 918.38,1471.20 919.96,1482.78 923.29,1507.04 924.38,1514.93 940.12,1513.05 933.81,1467.09 918.07,1468.98"/>
    <poly id="104174740" type="building.yes" color="255,230,230" fill="1" layer="-1.00" shape="1177.91,1372.02 1174.08,1425.00 1166.72,1424.46 1165.15,1446.14 1176.38,1446.95 1177.76,1427.73 1182.81,1428.11 1186.82,1372.66 1177.91,1372.02"/>
    <poly id="105519409" type="building.yes" color="255,230,230" fill="1" layer="-1.00" shape="1006.42,1846.07 1020.63,1880.80 1019.80,1892.19 1018.29,1892.11 1005.49,1891.41 1003.05,1891.28 1003.86,1880.29 1006.42,1846.07"/>
    <poly id="110778819" type="building.yes" color="255,230,230" fill="1" layer="-1.00" shape="656.60,406.42 655.54,409.54 658.85,411.11 654.92,420.62 647.57,417.30 646.75,419.82 648.17,420.28 646.38,425.36 641.86,423.83 644.21,415.81 647.98,402.61 656.60,406.42"/>
    <poly id="110778827" type="building.yes" color="255,230,230" fill="1" layer="-1.00" shape="652.23,427.39 654.00,422.94 654.92,420.62 647.57,417.30 646.75,419.82 648.17,420.28 646.38,425.36 652.23,427.39"/>
    <poly id="110778831" type="building.yes" color="255,230,230" fill="1" layer="-1.00" shape="632.71,356.56 631.53,356.32 629.20,365.86 641.46,368.54 643.95,359.61 632.71,356.56"/>
    <poly id="110778842" type="building.yes" color="255,230,230" fill="1" layer="-1.00" shape="639.70,431.15 649.42,434.46 652.23,427.39 646.38,425.36 641.86,423.83 639.70,431.15"/>
    <poly id="110778845" type="building.yes" color="255,230,230" fill="1" layer="-1.00" shape="643.95,359.61 632.71,356.56 634.82,347.97 637.17,338.60 649.23,342.20 643.95,359.61"/>
    <poly id="110778847" type="building.yes" color="255,230,230" fill="1" layer="-1.00" shape="631.53,428.20 635.71,413.38 644.21,415.81 641.86,423.83 639.70,431.15 631.53,428.20"/>
    <poly id="110778848" type="building.yes" color="255,230,230" fill="1" layer="-1.00" shape="612.50,423.25 627.46,426.37 629.20,418.05 619.70,416.08 614.24,414.94 612.50,423.25"/>
    <poly id="110778867" type="building.yes" color="255,230,230" fill="1" layer="-1.00" shape="624.14,401.69 625.12,394.46 625.52,392.19 629.05,393.05 628.79,394.44 634.04,395.72 631.57,406.71 623.46,405.02 624.14,401.69"/>
    <poly id="110778881" type="building.yes" color="255,230,230" fill="1" layer="-1.00" shape="635.71,413.38 636.62,407.90 639.32,397.00 648.65,399.33 647.98,402.61 644.21,415.81 635.71,413.38"/>
    <poly id="110778886" type="building.yes" color="255,230,230" fill="1" layer="-1.00" shape="626.48,349.83 629.79,336.00 622.20,333.36 620.00,344.46 619.19,348.30 626.48,349.83"/>
    <poly id="110778895" type="building.yes" color="255,230,230" fill="1" layer="-1.00" shape="629.06,570.20 612.15,562.71 615.27,555.73 632.17,563.22 629.06,570.20"/>
    <poly id="110778898" type="building.yes" color="255,230,230" fill="1" layer="-1.00" shape="629.20,418.05 629.99,414.28 620.49,412.30 619.70,416.08 629.20,418.05"/>
    <poly id="110778900" type="building.yes" color="255,230,230" fill="1" layer="-1.00" shape="620.49,412.30 622.08,404.73 623.46,405.02 631.57,406.71 629.99,414.28 620.49,412.30"/>
    <poly id="110778927" type="building.yes" color="255,230,230" fill="1" layer="-1.00" shape="637.17,338.60 629.79,336.00 626.48,349.83 625.97,352.22 630.55,353.19 631.78,347.40 634.82,347.97 637.17,338.60"/>
    <poly id="110778930" type="building.yes" color="255,230,230" fill="1" layer="-1.00" shape="626.21,372.36 627.91,365.53 629.20,365.86 641.46,368.54 634.04,395.72 628.79,394.44 629.05,393.05 625.52,392.19 622.67,391.51 624.60,383.57 627.25,372.66 626.21,372.36"/>
    <poly id="110778931" type="building.yes" color="255,230,230" fill="1" layer="-1.00" shape="719.25,339.53 711.92,337.35 707.78,336.55 709.01,332.42 709.89,329.05 714.11,330.14 721.75,332.03 720.43,336.37 719.25,339.53"/>
    <poly id="110778931#1" type="historic.yes" color="128,255,128" fill="1" layer="-1.00" shape="719.25,339.53 711.92,337.35 707.78,336.55 709.01,332.42 709.89,329.05 714.11,330.14 721.75,332.03 720.43,336.37 719.25,339.53"/>
    <poly id="110778931#2" type="man_made.tower" color="255,230,230" fill="1" layer="-1.00" shape="719.25,339.53 711.92,337.35 707.78,336.55 709.01,332.42 709.89,329.05 714.11,330.14 721.75,332.03 720.43,336.37 719.25,339.53"/>
    <poly id="110781553" type="building.yes" color="255,230,230" fill="1" layer="-1.00" shape="626.58,489.13 620.34,486.96 621.07,485.13 627.52,487.03 626.58,489.13"/>
    <poly id="110781556" type="building.yes" color="255,230,230" fill="1" layer="-1.00" shape="699.20,428.20 703.60,430.24 699.81,440.63 697.66,439.83 694.79,438.75 699.20,428.20"/>
    <poly id="110781557" type="building.yes" color="255,230,230" fill="1" layer="-1.00" shape="690.27,487.88 684.79,485.95 685.32,482.53 688.24,482.90 692.59,483.68 690.27,487.88"/>
    <poly id="110781558" type="building.yes" color="255,230,230" fill="1" layer="-1.00" shape="671.28,528.98 667.96,533.23 666.06,533.22 659.52,527.76 663.97,521.97 664.82,520.87 667.99,523.49 666.77,525.26 671.28,528.98"/>
    <poly id="110781559" type="building.yes" color="255,230,230" fill="1" layer="-1.00" shape="705.79,443.30 704.66,445.90 701.02,454.14 708.38,456.96 711.23,449.24 712.36,446.21 710.37,445.21 705.79,443.30"/>
    <poly id="110781560" type="building.yes" color="255,230,230" fill="1" layer="-1.00" shape="626.40,469.08 642.93,477.14 637.68,487.84 645.94,491.86 655.10,473.15 643.78,467.63 630.62,461.52 627.86,466.11 626.40,469.08"/>
    <poly id="110781562" type="building.yes" color="255,230,230" fill="1" layer="-1.00" shape="651.82,522.50 643.90,517.00 648.01,510.68 653.79,514.86 656.84,509.85 659.32,510.95 657.35,513.99 651.82,522.50"/>
    <poly id="110781566" type="building.yes" color="255,230,230" fill="1" layer="-1.00" shape="651.79,464.85 656.24,455.02 669.03,460.11 664.63,470.69 651.79,464.85"/>
    <poly id="110781567" type="building.yes" color="255,230,230" fill="1" layer="-1.00" shape="681.91,499.16 676.01,507.02 684.54,514.00 690.75,506.09 681.91,499.16"/>
    <poly id="110781568" type="building.apartments" color="255,230,230" fill="1" layer="-1.00" shape="649.84,502.21 644.16,499.03 656.11,477.81 661.79,481.00 649.84,502.21"/>
    <poly id="110781569" type="building.yes" color="255,230,230" fill="1" layer="-1.00" shape="688.33,491.58 686.07,494.07 681.91,499.16 690.75,506.09 697.16,498.75 688.33,491.58"/>
    <poly id="110781570" type="building.yes" color="255,230,230" fill="1" layer="-1.00" shape="692.59,483.68 690.27,487.88 699.85,494.09 706.45,484.04 709.52,476.68 700.07,472.76 698.91,472.28 695.51,479.74 696.38,480.38 694.69,483.62 693.16,482.66 692.59,483.68"/>
    <poly id="110781572" type="building.yes" color="255,230,230" fill="1" layer="-1.00" shape="652.23,427.39 655.01,428.31 656.69,424.06 654.00,422.94 652.23,427.39"/>
    <poly id="110781573" type="building.yes" color="255,230,230" fill="1" layer="-1.00" shape="619.83,461.93 624.68,464.35 627.86,466.11 630.62,461.52 638.23,447.29 629.15,443.85 619.83,461.93"/>
    <poly id="110781574" type="building.yes" color="255,230,230" fill="1" layer="-1.00" shape="637.37,512.46 631.75,508.79 636.63,500.70 638.97,502.16 637.55,504.45 641.19,506.92 637.37,512.46"/>
    <poly id="110781575" type="building.yes" color="255,230,230" fill="1" layer="-1.00" shape="674.35,480.18 669.00,478.21 665.23,487.32 672.29,491.05 677.66,495.50 681.91,499.16 686.07,494.07 676.90,486.33 672.75,483.81 674.35,480.18"/>
    <poly id="110781576" type="building.yes" color="255,230,230" fill="1" layer="-1.00" shape="690.87,450.00 672.23,443.19 676.39,432.19 683.25,435.03 694.38,439.74 690.87,450.00"/>
    <poly id="110781578" type="building.yes" color="255,230,230" fill="1" layer="-1.00" shape="684.30,466.42 698.91,472.28 695.51,479.74 694.91,479.49 693.16,482.66 692.59,483.68 688.24,482.90 690.40,477.86 682.69,474.46 681.95,475.73 677.80,473.88 679.11,470.73 682.02,471.92 684.30,466.42"/>
    <poly id="110781579" type="building.yes" color="255,230,230" fill="1" layer="-1.00" shape="750.06,596.26 745.93,594.50 747.35,591.20 741.95,588.90 743.82,584.54 772.57,596.76 769.30,604.44 750.06,596.26"/>
    <poly id="110781581" type="building.yes" color="255,230,230" fill="1" layer="-1.00" shape="676.01,507.02 668.75,515.93 677.09,522.46 684.54,514.00 676.01,507.02"/>
    <poly id="110781582" type="building.yes" color="255,230,230" fill="1" layer="-1.00" shape="621.04,481.47 611.50,476.21 616.29,467.56 621.34,470.35 624.54,472.11 625.83,472.83 621.04,481.47"/>
    <poly id="110781584" type="building.yes" color="255,230,230" fill="1" layer="-1.00" shape="687.72,423.38 699.20,428.20 694.79,438.75 694.38,439.74 683.25,435.03 687.72,423.38"/>
    <poly id="110781585" type="building.yes" color="255,230,230" fill="1" layer="-1.00" shape="669.03,460.11 684.30,466.42 682.02,471.92 679.11,470.73 677.80,473.88 671.82,471.41 669.00,478.21 665.67,476.84 667.07,473.46 664.01,472.19 664.63,470.69 669.03,460.11"/>
    <poly id="110781587" type="building.yes" color="255,230,230" fill="1" layer="-1.00" shape="710.37,445.21 711.78,441.56 721.48,445.59 719.72,449.16 724.57,451.32 729.71,441.04 709.95,433.35 705.79,443.30 710.37,445.21"/>
    <poly id="110781589" type="building.yes" color="255,230,230" fill="1" layer="-1.00" shape="621.34,470.35 624.68,464.35 627.86,466.11 626.40,469.08 624.54,472.11 621.34,470.35"/>
    <poly id="110781590" type="building.yes" color="255,230,230" fill="1" layer="-1.00" shape="629.85,495.99 636.07,486.69 628.33,485.22 627.52,487.03 626.58,489.13 625.21,492.20 624.76,492.95 629.85,495.99"/>
    <poly id="110781595" type="building.yes" color="255,230,230" fill="1" layer="-1.00" shape="624.30,504.25 614.05,497.42 617.42,492.18 619.98,493.60 621.91,490.46 625.21,492.20 624.76,492.95 623.12,495.60 627.97,498.90 624.30,504.25"/>
    <poly id="110781599" type="building.yes" color="255,230,230" fill="1" layer="-1.00" shape="668.75,515.93 667.31,517.81 666.66,520.45 669.05,522.31 667.99,523.49 666.77,525.26 671.28,528.98 677.09,522.46 668.75,515.93"/>
    <poly id="110781604" type="building.yes" color="255,230,230" fill="1" layer="-1.00" shape="643.90,517.00 637.37,512.46 641.19,506.92 643.50,503.56 647.14,505.24 644.77,508.47 648.01,510.68 643.90,517.00"/>
    <poly id="110781607" type="amenity.university" color="237,199,199" fill="1" layer="-1.00" shape="658.85,411.11 687.72,423.38 683.25,435.03 676.39,432.19 656.69,424.06 654.00,422.94 654.92,420.62 658.85,411.11"/>
    <poly id="110781607#1" type="building.yes" color="255,230,230" fill="1" layer="-1.00" shape="658.85,411.11 687.72,423.38 683.25,435.03 676.39,432.19 656.69,424.06 654.00,422.94 654.92,420.62 658.85,411.11"/>
    <poly id="110781609" type="building.yes" color="255,230,230" fill="1" layer="-1.00" shape="646.43,462.48 650.23,452.63 656.24,455.02 651.79,464.85 646.43,462.48"/>
    <poly id="110781614" type="building.yes" color="255,230,230" fill="1" layer="-1.00" shape="672.96,504.73 666.99,501.71 671.69,492.49 677.66,495.50 672.96,504.73"/>
    <poly id="110781616" type="building.yes" color="255,230,230" fill="1" layer="-1.00" shape="699.81,440.63 705.79,443.30 709.95,433.35 703.60,430.24 699.81,440.63"/>
    <poly id="110781618" type="building.yes" color="255,230,230" fill="1" layer="-1.00" shape="659.52,527.76 651.82,522.50 657.35,513.99 660.86,516.47 659.53,518.76 663.97,521.97 659.52,527.76"/>
    <poly id="110781621" type="building.yes" color="255,230,230" fill="1" layer="-1.00" shape="711.23,449.24 715.35,450.84 716.34,448.89 719.16,450.09 719.72,449.16 724.57,451.32 720.27,460.62 718.51,461.27 708.38,456.96 711.23,449.24"/>
    <poly id="110781623" type="building.yes" color="255,230,230" fill="1" layer="-1.00" shape="631.75,508.79 625.51,504.89 629.08,499.35 634.08,502.45 635.57,500.11 636.63,500.70 631.75,508.79"/>
    <poly id="110781626" type="building.yes" color="255,230,230" fill="1" layer="-1.00" shape="630.62,461.52 643.78,467.63 646.43,462.48 650.23,452.63 638.23,447.29 630.62,461.52"/>
    <poly id="110781632" type="building.yes" color="255,230,230" fill="1" layer="-1.00" shape="701.02,454.14 690.87,450.00 694.38,439.74 694.79,438.75 697.66,439.83 697.09,441.26 699.51,441.92 698.99,443.65 704.66,445.90 701.02,454.14"/>
    <poly id="117560647" type="building.yes" color="255,230,230" fill="1" layer="-1.00" shape="1480.67,1170.29 1477.68,1165.23 1478.86,1164.53 1458.71,1151.55 1458.05,1153.24 1457.59,1154.41 1457.02,1158.23 1479.04,1171.05 1480.67,1170.29"/>
    <poly id="117560663" type="amenity.car_wash" color="237,199,199" fill="1" layer="-1.00" shape="1314.09,966.15 1323.25,967.52 1326.64,944.88 1325.19,944.66 1325.94,939.66 1318.23,938.50 1314.09,966.15"/>
    <poly id="117560663#1" type="building.yes" color="255,230,230" fill="1" layer="-1.00" shape="1314.09,966.15 1323.25,967.52 1326.64,944.88 1325.19,944.66 1325.94,939.66 1318.23,938.50 1314.09,966.15"/>
    <poly id="117560664" type="building.yes" color="255,230,230" fill="1" layer="-1.00" shape="1322.32,920.55 1328.67,921.72 1331.46,906.85 1332.08,903.15 1334.67,889.18 1328.32,888.02 1322.32,920.55"/>
    <poly id="117560669" type="building.yes" color="255,230,230" fill="1" layer="-1.00" shape="1300.67,1116.35 1317.89,1119.13 1320.29,1104.28 1303.08,1101.50 1302.78,1103.37 1300.67,1116.35"/>
    <poly id="117560672" type="building.yes" color="255,230,230" fill="1" layer="-1.00" shape="1346.57,1095.25 1348.29,1083.16 1383.91,1089.06 1378.17,1096.29 1381.88,1096.84 1378.15,1100.29 1346.57,1095.25"/>
    <poly id="117560673" type="building.yes" color="255,230,230" fill="1" layer="-1.00" shape="1380.86,981.07 1383.04,984.65 1393.34,978.43 1390.34,973.49 1384.86,976.80 1385.68,978.16 1380.86,981.07"/>
    <poly id="117560674" type="building.garage" color="255,230,230" fill="1" layer="-1.00" shape="1374.97,986.87 1369.52,982.69 1366.69,986.36 1372.14,990.54 1374.97,986.87"/>
    <poly id="117560676" type="building.garage" color="255,230,230" fill="1" layer="-1.00" shape="1368.04,1012.09 1369.94,999.29 1376.20,1000.21 1374.29,1013.01 1368.04,1012.09"/>
    <poly id="131634115" type="leisure.pitch" color="207,245,201" fill="1" layer="-2.00" shape="1262.72,212.55 1275.02,215.55 1280.18,194.46 1267.88,191.46 1262.72,212.55"/>
    <poly id="131634115#1" type="sport.beachvolleyball" color="79,230,125" fill="1" layer="-2.00" shape="1262.72,212.55 1275.02,215.55 1280.18,194.46 1267.88,191.46 1262.72,212.55"/>
    <poly id="131634156" type="building.yes" color="255,230,230" fill="1" layer="-1.00" shape="781.83,305.58 781.87,307.18 784.51,307.10 788.54,306.98 788.31,299.32 781.64,299.52 781.83,305.58"/>
    <poly id="131634158" type="building.yes" color="255,230,230" fill="1" layer="-1.00" shape="720.94,295.25 724.55,296.67 728.56,298.24 730.75,292.68 731.96,289.63 724.34,286.64 723.16,289.62 720.94,295.25"/>
    <poly id="131634159" type="building.yes" color="255,230,230" fill="1" layer="-1.00" shape="768.50,353.60 775.27,355.29 775.61,353.87 777.12,348.03 774.01,347.22 770.33,346.31 768.50,353.60"/>
    <poly id="131634160" type="building.yes" color="255,230,230" fill="1" layer="-1.00" shape="799.63,365.37 806.93,359.84 803.07,352.02 797.36,350.41 794.24,349.54 791.84,358.76 790.56,362.79 799.63,365.37"/>
    <poly id="131646317" type="building.yes" color="255,230,230" fill="1" layer="-1.00" shape="640.68,269.96 646.18,272.88 651.80,262.33 646.83,259.69 646.31,259.42 640.68,269.96"/>
    <poly id="135548925" type="building.construction" color="255,230,230" fill="1" layer="-1.00" shape="835.70,427.15 842.37,429.48 856.64,434.33 920.19,456.25 912.54,478.35 828.06,449.23 835.70,427.15"/>
    <poly id="135548926" type="amenity.university" color="237,199,199" fill="1" layer="-1.00" shape="1123.79,453.96 1079.09,556.81 1079.48,568.03 1099.07,602.91 1095.95,619.46 1061.75,723.26 1059.71,737.15 1044.12,740.67 1024.22,737.97 1011.86,733.75 1003.97,727.75 957.44,708.27 947.05,710.48 913.04,696.58 793.36,649.78 799.04,636.03 789.55,632.41 800.78,605.14 818.19,563.08 827.42,540.66 831.54,529.58 834.93,515.42 835.33,484.11 830.90,454.94 933.50,488.91 965.01,400.06 1123.79,453.96"/>
    <poly id="137247854" type="landuse.residential" color="235,235,227" fill="1" layer="-3.00" shape="1007.84,2205.31 973.15,2217.86 944.21,2102.23 986.48,2086.75 1002.38,2146.21 1007.35,2188.79 1007.84,2205.31"/>
    <poly id="137247862" type="building.yes" color="255,230,230" fill="1" layer="-1.00" shape="737.09,1886.58 732.95,1887.46 728.87,1888.32 709.99,1916.16 718.31,1926.37 719.90,1925.93 724.94,1948.95 765.95,1940.03 760.77,1916.34 769.42,1914.77 771.69,1908.30 737.09,1886.58"/>
    <poly id="137247863" type="building.yes" color="255,230,230" fill="0" layer="-1.00" shape="668.09,2039.80 664.29,2032.00 667.21,2030.59 640.68,1976.06 614.54,1988.69 632.04,2024.67 621.21,2029.91 633.96,2056.16 647.17,2049.39 651.44,2058.19 667.68,2050.96 668.10,2039.80"/>
    <poly id="137247864" type="building.yes" color="255,230,230" fill="1" layer="-1.00" shape="972.78,1815.42 977.92,1793.53 959.05,1812.18 972.78,1815.42"/>
    <poly id="137247865" type="building.yes" color="255,230,230" fill="1" layer="-1.00" shape="1051.47,1924.71 1016.35,1922.47 1017.95,1897.37 1053.24,1899.84 1051.47,1924.71"/>
    <poly id="137247868" type="building.yes" color="255,230,230" fill="1" layer="-1.00" shape="692.31,2036.53 676.60,2035.69 674.77,2069.64 690.86,2058.61 692.31,2036.53"/>
    <poly id="137247869" type="building.yes" color="255,230,230" fill="1" layer="-1.00" shape="732.97,2106.34 734.72,2114.26 749.43,2111.01 747.66,2103.09 732.97,2106.34"/>
    <poly id="137247870" type="building.yes" color="255,230,230" fill="1" layer="-1.00" shape="833.04,2009.25 788.32,2001.51 784.80,2021.76 829.51,2029.51 833.04,2009.25"/>
    <poly id="137247871" type="building.yes" color="255,230,230" fill="1" layer="-1.00" shape="821.74,1966.45 794.99,1961.96 791.67,1981.73 818.41,1986.20 821.74,1966.45"/>
    <poly id="137247872" type="building.yes" color="255,230,230" fill="1" layer="-1.00" shape="828.11,2035.89 807.74,2032.93 805.58,2047.72 825.95,2050.67 828.11,2035.89"/>
    <poly id="137247873" type="building.yes" color="255,230,230" fill="1" layer="-1.00" shape="847.72,1988.29 853.82,1973.65 846.24,1970.50 840.14,1985.15 847.72,1988.29"/>
    <poly id="137247874" type="building.yes" color="255,230,230" fill="1" layer="-1.00" shape="797.26,1946.09 842.06,1960.68 847.78,1943.20 802.97,1928.62 797.26,1946.09"/>
    <poly id="137247875" type="building.yes" color="255,230,230" fill="1" layer="-1.00" shape="729.59,2091.15 754.50,2085.65 751.38,2071.62 726.47,2077.12 729.59,2091.15"/>
    <poly id="137247876" type="building.yes" color="255,230,230" fill="1" layer="-1.00" shape="809.86,2137.90 808.16,2130.25 779.49,2136.57 781.20,2144.23 809.86,2137.90"/>
    <poly id="137247877" type="building.garage" color="255,230,230" fill="1" layer="-1.00" shape="937.34,2082.44 942.37,2096.12 974.54,2084.35 972.82,2079.71 937.34,2082.44"/>
    <poly id="137247878" type="building.yes" color="255,230,230" fill="1" layer="-1.00" shape="775.01,2092.65 773.07,2083.86 764.62,2085.73 766.56,2094.51 775.01,2092.65"/>
    <poly id="137247879" type="building.yes" color="255,230,230" fill="1" layer="-1.00" shape="749.10,1996.18 757.74,1982.25 773.73,1957.88 773.18,1957.34 694.19,1973.70 701.17,2006.58 710.98,2004.20 749.10,1996.18"/>
    <poly id="137247880" type="building.yes" color="255,230,230" fill="1" layer="-1.00" shape="950.77,1857.90 945.97,1873.81 958.31,1876.73 962.14,1860.61 968.09,1835.15 954.14,1831.86 948.19,1857.31 950.77,1857.90"/>
    <poly id="137247881" type="building.yes" color="255,230,230" fill="1" layer="-1.00" shape="808.16,2130.25 806.14,2121.15 767.77,2129.61 769.79,2138.71 779.49,2136.57 808.16,2130.25"/>
    <poly id="137247882" type="building.yes" color="255,230,230" fill="1" layer="-1.00" shape="699.91,2099.90 704.93,2106.89 719.51,2096.49 714.64,2089.71 717.34,2087.85 695.02,2055.76 690.86,2058.61 674.77,2069.64 697.32,2101.69 699.91,2099.90"/>
    <poly id="137247883" type="building.yes" color="255,230,230" fill="1" layer="-1.00" shape="948.25,1830.46 954.14,1831.86 968.09,1835.15 972.78,1815.42 959.05,1812.18 952.94,1810.72 948.25,1830.46"/>
    <poly id="137247884" type="building.yes" color="255,230,230" fill="1" layer="-1.00" shape="704.67,1882.35 698.00,1878.17 694.12,1875.73 671.28,1911.89 681.83,1918.51 704.25,1883.02 704.67,1882.35"/>
    <poly id="137247885" type="building.yes" color="255,230,230" fill="1" layer="-1.00" shape="677.12,1938.99 687.75,1922.29 681.83,1918.51 671.28,1911.89 670.73,1911.51 660.10,1928.22 677.12,1938.99"/>
    <poly id="137247886" type="building.yes" color="255,230,230" fill="1" layer="-1.00" shape="806.64,2101.93 751.32,2114.13 755.36,2132.35 767.77,2129.61 806.14,2121.15 810.68,2120.15 806.64,2101.93"/>
    <poly id="137247887" type="building.yes" color="255,230,230" fill="1" layer="-1.00" shape="775.57,2095.16 786.16,2092.83 782.69,2077.21 772.11,2079.55 773.07,2083.86 775.01,2092.65 775.57,2095.16"/>
    <poly id="137247888" type="building.yes" color="255,230,230" fill="1" layer="-1.00" shape="709.15,1886.10 718.15,1871.86 706.58,1864.59 698.00,1878.17 704.67,1882.35 704.25,1883.02 709.15,1886.10"/>
    <poly id="137247889" type="building.yes" color="255,230,230" fill="1" layer="-1.00" shape="767.50,2098.72 766.56,2094.51 764.62,2085.73 764.13,2083.53 754.50,2085.65 729.59,2091.15 732.97,2106.34 747.66,2103.09 767.50,2098.72"/>
    <poly id="137435061" type="building.yes" color="255,230,230" fill="1" layer="-1.00" shape="1475.88,1908.87 1474.53,1899.23 1464.99,1900.56 1466.34,1910.20 1467.16,1910.08 1475.88,1908.87"/>
    <poly id="137435064" type="building.yes" color="255,230,230" fill="1" layer="-1.00" shape="884.99,1587.63 893.48,1589.50 891.18,1599.92 882.69,1598.05 884.99,1587.63"/>
    <poly id="137435068" type="building.garage" color="255,230,230" fill="1" layer="-1.00" shape="1070.61,1589.02 1069.57,1594.41 1097.25,1599.67 1098.29,1594.27 1070.61,1589.02"/>
    <poly id="137435114" type="amenity.parking" color="184,184,179" fill="1" layer="-1.00" shape="1013.80,1102.84 1031.58,1076.57 1046.60,1086.71 1054.00,1096.20 1049.39,1107.08 1039.27,1122.33 1026.47,1125.22 1018.45,1122.39 1012.54,1112.47 1013.80,1102.84"/>
    <poly id="137435128" type="amenity.social_facility" color="237,199,199" fill="1" layer="-1.00" shape="859.87,1451.36 862.38,1417.62 870.05,1418.30 869.79,1420.40 873.41,1422.04 875.27,1420.95 879.94,1424.68 877.95,1429.08 878.16,1433.12 880.18,1437.14 883.49,1439.85 887.41,1441.24 891.46,1441.24 894.63,1438.55 897.00,1434.71 897.10,1431.63 896.36,1428.52 892.85,1424.07 896.96,1418.33 899.14,1420.22 900.17,1419.00 902.45,1422.14 911.81,1418.40 913.80,1429.69 914.52,1439.10 914.90,1445.30 913.32,1445.28 913.32,1447.13 919.92,1447.50 919.03,1455.32 859.87,1451.36"/>
    <poly id="137435128#1" type="building.yes" color="255,230,230" fill="1" layer="-1.00" shape="859.87,1451.36 862.38,1417.62 870.05,1418.30 869.79,1420.40 873.41,1422.04 875.27,1420.95 879.94,1424.68 877.95,1429.08 878.16,1433.12 880.18,1437.14 883.49,1439.85 887.41,1441.24 891.46,1441.24 894.63,1438.55 897.00,1434.71 897.10,1431.63 896.36,1428.52 892.85,1424.07 896.96,1418.33 899.14,1420.22 900.17,1419.00 902.45,1422.14 911.81,1418.40 913.80,1429.69 914.52,1439.10 914.90,1445.30 913.32,1445.28 913.32,1447.13 919.92,1447.50 919.03,1455.32 859.87,1451.36"/>
    <poly id="137435134" type="amenity.parking" color="184,184,179" fill="1" layer="-1.00" shape="871.66,1407.10 869.18,1414.73 904.75,1416.04 906.09,1412.41 910.44,1413.78 918.28,1393.39 921.63,1392.97 927.64,1380.39 922.96,1378.67 927.74,1366.41 929.80,1329.39 926.82,1329.13 926.97,1324.52 885.70,1322.81 879.09,1340.89 883.09,1342.84 889.02,1345.13 894.19,1331.85 911.32,1338.47 905.66,1353.02 904.51,1352.57 899.26,1366.08 905.69,1368.56 900.35,1382.31 898.64,1381.64 893.21,1395.62 894.92,1396.28 889.20,1410.99 880.92,1407.79 879.94,1410.30 871.66,1407.10"/>
    <poly id="137435141" type="building.house" color="255,230,230" fill="1" layer="-1.00" shape="1758.35,1692.00 1745.43,1695.72 1741.96,1683.71 1754.88,1680.00 1758.35,1692.00"/>
    <poly id="137435143" type="building.yes" color="255,230,230" fill="1" layer="-1.00" shape="908.14,1473.16 918.38,1471.20 919.96,1482.78 910.07,1483.90 908.14,1473.16"/>
    <poly id="137435147" type="building.yes" color="255,230,230" fill="1" layer="-1.00" shape="1730.57,1701.58 1726.20,1691.75 1701.83,1702.51 1706.20,1712.35 1730.57,1701.58"/>
    <poly id="137435149" type="building.house" color="255,230,230" fill="1" layer="-1.00" shape="1777.07,1720.93 1766.87,1724.94 1772.55,1739.29 1782.75,1735.28 1777.07,1720.93"/>
    <poly id="137463482" type="building.garage" color="255,230,230" fill="1" layer="-1.00" shape="1332.68,950.35 1339.39,951.15 1340.15,944.72 1333.44,943.92 1332.68,950.35"/>
    <poly id="137463483" type="building.garage" color="255,230,230" fill="1" layer="-1.00" shape="1312.33,1078.71 1319.31,1079.84 1322.63,1059.42 1315.65,1058.30 1312.33,1078.71"/>
    <poly id="137463484" type="building.yes" color="255,230,230" fill="1" layer="-1.00" shape="1297.30,1102.39 1302.78,1103.37 1300.67,1116.35 1295.42,1115.65 1297.30,1102.39"/>
    <poly id="137463485" type="building.yes" color="255,230,230" fill="1" layer="-1.00" shape="1462.97,1137.37 1464.96,1132.43 1454.58,1128.29 1452.60,1133.24 1462.97,1137.37"/>
    <poly id="137463487" type="building.garage" color="255,230,230" fill="1" layer="-1.00" shape="1348.25,967.58 1349.22,970.79 1358.93,972.38 1356.35,964.83 1348.25,967.58"/>
    <poly id="137463488" type="building.garage" color="255,230,230" fill="1" layer="-1.00" shape="1429.19,1120.79 1430.91,1115.06 1425.42,1113.43 1423.71,1119.16 1429.19,1120.79"/>
    <poly id="137463489" type="building.garage" color="255,230,230" fill="1" layer="-1.00" shape="1346.36,961.72 1354.26,959.01 1352.52,953.95 1344.62,956.65 1346.36,961.72"/>
    <poly id="137463490" type="building.yes" color="255,230,230" fill="1" layer="-1.00" shape="1352.10,1041.81 1393.31,1053.65 1394.62,1049.08 1353.42,1037.23 1352.10,1041.81"/>
    <poly id="137463492" type="building.yes" color="255,230,230" fill="1" layer="-1.00" shape="1427.66,1142.55 1432.37,1126.34 1421.26,1123.13 1416.56,1139.35 1427.66,1142.55"/>
    <poly id="137463494" type="building.yes" color="255,230,230" fill="1" layer="-1.00" shape="1462.45,1142.00 1442.94,1134.39 1438.54,1145.64 1458.05,1153.24 1458.71,1151.55 1462.45,1142.00"/>
    <poly id="137463495" type="building.yes" color="255,230,230" fill="1" layer="-1.00" shape="1391.69,1131.24 1400.06,1133.76 1404.15,1120.22 1419.87,1124.96 1422.96,1114.74 1398.88,1107.49 1391.69,1131.24"/>
    <poly id="137463496" type="building.yes" color="255,230,230" fill="1" layer="-1.00" shape="1412.41,1051.06 1405.96,1039.82 1408.08,1038.61 1406.98,1036.69 1404.06,1035.92 1404.54,1034.20 1357.29,1020.97 1353.55,1034.40 1412.41,1051.06"/>
    <poly id="140684002" type="landuse.allotments" color="194,194,130" fill="1" layer="-3.00" shape="812.20,888.48 817.11,935.65 776.43,951.19 766.25,958.83 766.03,965.57 760.46,969.15 759.57,979.44 758.02,993.46 737.92,997.17 740.63,948.91 724.50,949.06 704.16,954.39 681.83,912.27 711.76,896.02 750.72,879.34 760.37,908.09 772.85,909.31 812.20,888.48"/>
    <poly id="140684019" type="building.yes" color="255,230,230" fill="1" layer="-1.00" shape="890.96,1130.16 887.41,1135.13 884.67,1133.19 878.06,1142.43 888.71,1150.00 891.72,1145.72 892.79,1145.59 894.73,1142.74 894.55,1141.86 898.88,1135.79 890.96,1130.16"/>
    <poly id="140684020" type="natural.water" color="181,209,209" fill="1" layer="-4.00" shape="758.98,957.41 759.84,960.21 755.44,963.02 754.49,970.12 754.75,974.64 752.95,978.62 750.20,978.59 749.62,976.91 750.63,973.96 751.98,964.86 752.31,952.78 755.61,953.06 754.92,956.55 756.82,958.54 758.98,957.41"/>