<?xml version="1.0" encoding="UTF-8"?>

<!-- generated on Fri Nov  4 15:07:10 2016 by SUMO duarouter Version 0.26.0
<?xml version="1.0" encoding="UTF-8"?>

<configuration xmlns:xsi="http://www.w3.org/2001/XMLSchema-instance" xsi:noNamespaceSchemaLocation="http://sumo.dlr.de/xsd/duarouterConfiguration.xsd">

    <input>
        <net-file value="ingolstadt-north-netedit.net.xml"/>
        <trip-files value="ingolstadt-north.trips.xml"/>
    </input>

    <output>
        <output-file value="ingolstadt-north-netedit.rou.xml"/>
    </output>

    <processing>
        <ignore-errors value="true"/>
    </processing>

    <time>
        <begin value="0"/>
        <end value="1800.0"/>
    </time>

    <report>
        <no-step-log value="true"/>
    </report>

</configuration>
-->

<routes xmlns:xsi="http://www.w3.org/2001/XMLSchema-instance" xsi:noNamespaceSchemaLocation="http://sumo.dlr.de/xsd/routes_file.xsd">
    <vehicle id="0" depart="0.00">
        <route edges="157305703#1 -138300617#4 -138300617#3 138300629 306793669-AddedOnRampEdge 306793669 306793669-AddedOffRampEdge 32976752 28091398 327975022 39704919 28091397#0 28091397#1 266507547 -266507550 -308849647 -201789794#3 -202070429#9 -202070429#6 -28132813 175761127#12 -261448661 26180727"/>
    </vehicle>
    <vehicle id="1" depart="1.00">
        <route edges="39697943 146973153 39530041 266507542 39704923 266507553 39704918 28091397#1 266507547 -201789796#1 -201789796#0 -201880159#1 -201880159#0 25625974 202070431 -201789799#2 -201789799#1 -30482638#11 -30482638#8 -30482638#7 -30482638#6 -30482638#2"/>
    </vehicle>
    <vehicle id="2" depart="2.00">
        <route edges="202070429#4 153692837#0 153692837#1 153692837#2 153692837#3 153692837#4 153692837#5 -30482638#6 -30482638#2 -30482638#1"/>
    </vehicle>
    <vehicle id="3" depart="3.00">
        <route edges="266507540 23622443 195073412#0 195073413 327975020 327975024 327975019 146973189 195073416 195073418#0 266507539 4058141 266507543 266507532 327975022 39704920 151167740 266507555 266507554 266507557#0 266507557#1 172368742#0 4061708#1 391029010 25623127#0 -25638677 25623128#1 25623128#2 25623128#3 25623128#4 25623128#5 97304242#7 -27782265#3 27761238#0"/>
    </vehicle>
    <vehicle id="4" depart="4.00">
        <route edges="266507551 85564606 257907858#0 257907860#0 305390325#0 25797295#0 -201444272#0 -25797090#1 31342064#0"/>
    </vehicle>
    <vehicle id="5" depart="5.00">
        <route edges="25901702 -25638527 -25796375#2 -25796375#1 33280102#3 202070429#0 202070429#2 202070429#4 202070429#5 202070429#6 202070429#7"/>
    </vehicle>
    <vehicle id="6" depart="6.00">
        <route edges="266507537 266507538 266507539 4058141 266507543 266507532 327975022 39704920 151167740 266507555 266507554 266507557#0 266507557#1 172368742#0 172368742#1 172368742#3 391029008#0 391029008#1 -33280103#5 -26176222#1 26176223#0 61326427#0 -274823622#0 -31342351#1 31342350#0 144657087#0"/>
    </vehicle>
    <vehicle id="7" depart="7.00">
        <route edges="25596851#0 25596851#1 -201789797#2 -25597196#12 -25573246#1 25573254"/>
    </vehicle>
    <vehicle id="8" depart="8.00">
        <route edges="39577540 157305703#1 -138300617#4 -138300617#3 138300629 306793669-AddedOnRampEdge 306793669 306793669-AddedOffRampEdge 32976752 28091398 327975022 39704920 151167740 266507555 266507554 266507557#0 266507557#1 172368742#0 172368742#1 172368742#3 391029008#0 391029008#1 4942575#0 4942575#2 31342349#0 4942408 54858973#0 25367735#1 25344437#6"/>
    </vehicle>
    <vehicle id="9" depart="9.00">
        <route edges="39704922 266507540 23622443 195073412#0 195073413 327975020 327975024 327975019 146973189 195073416 195073418#0 266507539 4058141 266507543 266507532 327975022 39704920 151167740 266507555 266507554 266507557#0 266507557#1 172368742#0 4061708#1 391029010 25623127#0 -391029014#0 -60064938#3 -28133177#1 39863084#0 39863084#1 39863084#2 39863084#3 28133199"/>
    </vehicle>
    <vehicle id="10" depart="10.00">
        <route edges="-24978651 28132014#0 42745460 54154921#0 30482638#0 30482638#2 30482638#3 30482638#7 30482638#8 30482638#9 201789799#0 201789799#2 201789798#0 202070435#0 202070435#1 202070435#2 202070435#7 202070435#8 202070435#10 37192508#0 215826160#0"/>
    </vehicle>
    <vehicle id="11" depart="11.00">
        <route edges="64464430 31342305 30404124 266567307#0 233673425#0 29238186 165520704 -24989986 165520706 -140684001 -233673425#1 -266567307#1 -30404124 30417892 266567308#0 32009827 266567303 266567294#0 31342064#0 305495773#0 266507551 85564606 -115082348#5 -115082348#3 -115082348#2 -115082348#0"/>
    </vehicle>
    <vehicle id="12" depart="12.00">
        <route edges="-158180482#0 -28132749#1 -28132749#0 158180482#0 -28132718 172368742#1 172368742#3 391029008#0 391029008#1 -33280103#5 -26176222#1 -26176222#0 -144657087#3 -26176225#5 274823622#2 25895966#0 25895966#6 29238188#3 152077572#0"/>
    </vehicle>
    <vehicle id="13" depart="13.00">
        <route edges="306793669-AddedOnRampEdge 306793669 306793669-AddedOffRampEdge 32976752 28091398 327975022 39704919 28091397#0 28091397#1 266507547 -266507550 -308849647 -201789794#3 -202070429#9 -25895945#2 175761127#8 175761127#10"/>
    </vehicle>
    <vehicle id="14" depart="14.00">
        <route edges="39603438#1 306793669-AddedOnRampEdge 306793669 306793669-AddedOffRampEdge 32976752 28091398 327975022 39704920 151167740 266507555 266507554 266507557#0 266507557#1 172368742#0 4061708#1 391029010 25623127#0 -391029014#0 -60064938#3 -28133177#1 -28133177#0"/>
    </vehicle>
    <vehicle id="15" depart="15.00">
        <route edges="25797433#2 -137463478#2 -137463478#1 25796398#0 305495773#0 266507551 266507552#0 202070429#0 202070429#2 202070429#4 153692837#0 153692837#1 153692837#2 153692837#3 25597196#7 -25573260#2 -25573260#1 -25573260#0 25640157#0 25640157#1 25640157#2 -92026769#5 -25640375#3 -25640375#2"/>
    </vehicle>
    <vehicle id="16" depart="16.00">
        <route edges="266507537 266507538 266507539 4058141 266507543 266507532 327975022 39704919 28091397#0 28091397#1 266507547 -201789796#1 -201789796#0 -201880159#1 -201880159#0 25625974 202070431 -201789799#2 -201789799#1"/>
    </vehicle>
    <vehicle id="17" depart="17.00">
        <route edges="201789797#2 149045267 149045269#0 149045269#1 149045269#2 -202070429#9 -202070429#6 -202070429#5 -202070429#4 -202070429#3 -202070429#0 202070427#0 25796375#1 25796375#2 25796388 32202763 -25638529 25895961 274823622#4 274823622#8 -137463478#3"/>
    </vehicle>
    <vehicle id="18" depart="18.00">
        <route edges="327975020 327975024 327975019 146973189 195073416 195073418#0 266507539 4058141 266507543 266507532 327975022 39704919 28091397#0 28091397#1 266507547 -266507550 -308849647 -201789794#3 -202070429#9 -202070429#6 -202070429#5 -202070429#4 -202070429#3 -202070429#0 257907860#0 25902677#0 137463478#1 137463478#2 -25797433#3 -25797433#1"/>
    </vehicle>
    <vehicle id="20" depart="20.00">
        <route edges="137247861#1 -25626777#2 -25344437#6 -25367735#1 30399322#2 30399319 -152077572#2 -29238188#3 -29238188#2 -137463478#3 -137463478#2 -137463478#1 25796398#0 31894763#0 137463475#0 116765457#0 28132014#0 42745460 54154921#0 30482638#0 30482638#2"/>
    </vehicle>
    <vehicle id="21" depart="21.00">
        <route edges="28091397#0 28091397#1 266507547 -201789796#1 -201789796#0 -201880159#1 25596851#0 25596851#1 41139095#0 41139095#1 153692837#3 -25597196#6 -25597196#5 -25597196#4 -25597196#3"/>
    </vehicle>
    <vehicle id="22" depart="22.00">
        <route edges="25596861#2 -25596855#1 -153692837#1 25640093#3 -25596861#0 202070429#2 202070429#4"/>
    </vehicle>
    <vehicle id="24" depart="24.00">
        <route edges="31894763#0 137463475#0 116765457#0 28132014#0 25597196#0 25597196#2 25597196#3 25597196#4 25597196#5 25597196#6 -153692837#3 -41139095#2 -41139095#0 149045267 25596993 149045845 -149045266 201789796#1 201789795 36291830 -26180725#2 28132852 39704923"/>
    </vehicle>
    <vehicle id="25" depart="25.00">
        <route edges="-27761238#1 27781907#0 27781907#1 -97304242#4 -97304242#3 -97304242#1 -33280103#5 -33280103#3 -33280103#0 33280102#0 33280102#1 33280102#2 33280102#3 257907860#0 305390325#0 25797295#0 201444272#1 201444272#3 29027727#0"/>
    </vehicle>
    <vehicle id="26" depart="26.00">
        <route edges="-25597196#12 -25597196#11 -25597196#9 -153692837#3 -153692837#2 -153692837#1 -153692837#0 -202070429#4 -202070429#3 -202070429#0 257907860#0 305390325#0 305390325#3 266567304#0 266567301#1 64464420 25955089 64464430 64464432#0 64464432#2 -24991571 -32009683#1 -32009682 -29048562#1 24537982#0 24537982#2 266565302"/>
    </vehicle>
    <vehicle id="27" depart="27.00">
        <route edges="145069303#0 24983010#0 161678033#0 51857519#0 161678034#0 24970784#0 164051410#0 164051410#1 32199969#0 23009002#0 24978651 115082348#0 115082348#1 115082348#3 115082348#4 257907858#0 202070429#0 202070429#2 202070429#4 202070429#5 202070429#6 -25895945#2 -25895945#1 -193384418"/>
    </vehicle>
    <vehicle id="28" depart="28.00">
        <route edges="137463477#0 305495773#0 266507551 266507552#0 202070427#0 202070427#1 202070427#2 33280103#0 71900674#0 25895864#0 25895864#1 26176223#0"/>
    </vehicle>
    <vehicle id="29" depart="29.00">
        <route edges="-175761127#13 28132813 -202070429#5 -202070429#4 -202070429#3 -202070429#0 257907860#0 305390325#0 305390325#3 266567304#0 266567301#1 64464420 24989982#0 -165520703#4 -24989986 165520706 -140684001 -233673425#1 -266567307#1 -30404124 30417892 64464397#0"/>
    </vehicle>
    <vehicle id="30" depart="30.00">
        <route edges="-118607469#1 92026769#1 92026769#2 92026769#3 -25640375#3 -25640375#2 -25640375#0 -25640157#0 25573260#0 25573260#1 25573260#2 -25597196#9 -153692837#3 -153692837#2 -153692837#1 25640093#3 25640093#4 -25640098#0 -25640097#1"/>
    </vehicle>
    <vehicle id="31" depart="31.00">
        <route edges="-28133181#1 25626605#1 25626605#2 25626605#4 25625950 391029007 391029009#0 391029009#1 41425835 151167747 39704923 266507553 39704918 28091397#1 266507547 -201789796#1 -201789796#0 -201880159#1 -201880159#0 25625974 171007004 202070435#0 202070435#1 25895947#0 28114295#0"/>
    </vehicle>
    <vehicle id="32" depart="32.00">
        <route edges="29238187#1 29238187#2 -29027727#2 -201444272#4 -201444272#2 -201444272#0 -25797090#1 31342064#0 305495773#0 266507551 266507552#0 202070429#0 202070429#2 202070429#4 202070429#5 202070429#6 202070429#7 201789794#0 308849647 266507550 201789795 36291830"/>
    </vehicle>
    <vehicle id="33" depart="33.00">
        <route edges="25797433#2 -137463478#2 -137463478#1 25796398#0 305495773#0 266507551 266507552#0 202070429#0 202070429#2 202070429#4 153692837#0 153692837#1 153692837#2 153692837#3 25597196#7 -25573260#2 -25573260#1 -25573260#0 25640157#0 25640157#1 25640157#2 -92026769#5 -25640375#3"/>
    </vehicle>
    <vehicle id="34" depart="34.00">
        <route edges="25192758 203971378#0 37480109 25380714#0 -25597196#3 -25597196#2 -25597196#1 -28132014#2 -116765457#1 -137463475#1 137463477#0 25902677#0 137463478#1 137463478#2 137463478#3 29238188#0 29238188#3 152077572#0 54858974 31342347"/>
    </vehicle>
    <vehicle id="35" depart="35.00">
        <route edges="146973189 195073416 195073418#0 266507539 4058141 266507543 266507532 327975022 39704919 28091397#0 28091397#1 266507547 -266507550 -308849647 -201789794#3 -202070429#9 -202070429#6 -202070429#5 -202070429#4 -202070429#3 -202070429#0 257907860#0 31894763#0 137463475#0"/>
    </vehicle>
    <vehicle id="36" depart="36.00">
        <route edges="323248155#0 -32199989#1 -32199989#0 -32199969#5 -32199969#4 23009002#0 28132014#0 25597196#0 25597196#2 25597196#3 -25380714#1 -90587320 -90587323"/>
    </vehicle>
    <vehicle id="37" depart="37.00">
        <route edges="25597196#12 201789797#2 149045267 149045269#0 149045269#1 149045269#2 -202070429#9 -202070429#6 -202070429#5 -202070429#4 -202070429#3 -202070429#0 257907860#0 305390325#0 25797295#0 201444272#1 25665370#0 -29238187#1"/>
    </vehicle>
    <vehicle id="38" depart="38.00">
        <route edges="-25797090#1 31342064#0 305495773#0 266507551 266507552#0 202070429#0 202070429#2 202070429#4 202070429#5 202070429#6 202070429#7 -149045269#3 -149045269#1 -149045269#0 25596993 149045845 -149045266 201789796#1 -266507550 -308849647"/>
    </vehicle>
    <vehicle id="39" depart="39.00">
        <route edges="29027727#5 29027727#7 29027727#9 152077572#0 54858974 30399316#0 30399316#1 25344437#0 -25367735#1 30399322#2 30399319 -152077572#2"/>
    </vehicle>
    <vehicle id="40" depart="40.00">
        <route edges="164051429#0 10425611#0 203971380 37480109 30482638#0 30482638#2 30482638#3 30482638#7 30482638#8 30482638#9 201789799#0 201789799#2 201789798#0 202070435#0 202070435#1 202070435#2 202070435#7 202070435#8 -37192505#2 -52918687#2 -37192504 -37192507#0"/>
    </vehicle>
    <vehicle id="41" depart="41.00">
        <route edges="266507538 266507539 4058141 266507543 266507532 327975022 39704919 28091397#0 28091397#1 266507547 -266507550 -308849647 -201789794#3 -202070429#9 -202070429#6 -202070429#5 -202070429#4 -202070429#3 -202070429#0 257907860#0 25902677#0 137463478#1 137463478#2 137463478#3 29238188#0 29238188#3 152077572#0 54858974"/>
    </vehicle>
    <vehicle id="42" depart="42.00">
        <route edges="-37192504 -37192507#0 -35743389#3 -35743389#1 -35743273 -202070435#6 -202070435#1 -202070435#0 -201789798#1 -201789799#2 151167720#0 151167720#1 25596851#1 149045267 149045269#0 149045269#1 149045269#2 -202070429#9 -202070429#6 -202070429#5 -202070429#4 -202070429#3 -202070429#0 257907860#0 25902677#0 137463478#1 137463478#2 137463478#3 29238188#0 29238188#3 -29027727#9 -25901651#4"/>
    </vehicle>
    <vehicle id="43" depart="43.00">
        <route edges="-25192758 90587321#0 203971379#1 -54154922#1 -42745461#1 -28132014#2 24978651 115082348#0 115082348#1 115082348#3 115082348#4 257907858#0 202070429#0 202070429#2 202070429#4 202070429#5 202070429#6"/>
    </vehicle>
    <vehicle id="44" depart="44.00">
        <route edges="92026769#3 -25640375#3 -25640375#2 -25640375#0 -25640157#0 25573260#0 25573260#1 25573260#2 -25597196#9 -153692837#3 -153692837#2 -153692837#1 -153692837#0 -202070429#4 -202070429#3 -202070429#0 257907860#0 25902677#0 137463478#1 137463478#2 29238187#0 25797084#0 25797084#1"/>
    </vehicle>
    <vehicle id="45" depart="45.00">
        <route edges="39697943 266507545 266507540"/>
    </vehicle>
    <vehicle id="46" depart="46.00">
        <route edges="64464432#2 -24991571 -32009683#1 -32009682 28232068#0 32009683#0 11014139#0 64464405 266567306 32009827 266567303 266567294#0 31342064#0 25902677#0 137463478#1 137463478#2 -25797433#3 -25797433#1 -25797433#0 -144657087#3 -144657087#2 61326427#0"/>
    </vehicle>
    <vehicle id="47" depart="47.00">
        <route edges="32009827 266567303 266567294#0 25797090#0 201444272#0 201444272#1 201444272#3 29027727#0 29027727#4 29027727#5 25665375#0"/>
    </vehicle>
    <vehicle id="48" depart="48.00">
        <route edges="64464430 64464432#0 64464432#2 -24991571 145069303#0 24983010#0 161678033#0 51857519#0 161678034#0 24970784#0 24977473#0 -42745461#1 25597196#0 25597196#2 25597196#3 -25380714#1 -90587320 -90587323 -10425611#1 -164051429#1"/>
    </vehicle>
    <vehicle id="49" depart="49.00">
        <route edges="-30482638#7 -153692837#5 153692841#2 -25573260#1 -25573254 -25573246#0 30482638#9 201789799#0 201789799#2 201789798#0 202070435#0 202070435#1 202070435#2 202070435#7 202070435#8 202070435#10 202070435#11 40059576#0 -157305700#5 -157305700#3 -157305700#2 -306793671"/>
    </vehicle>
    <vehicle id="50" depart="50.00">
        <route edges="-25623125#1 -4058127#1 172368742#0 4061708#1 391029010 -25623126#2 25623125#2 -39698490 -37681592#6 -37681592#5 -37681592#4 138300617#4 138300617#5"/>
    </vehicle>
    <vehicle id="51" depart="51.00">
        <route edges="-32202927#0 -25638527 -25796375#2 -25796375#1 202070427#1 202070427#2 33280103#0 33280103#1 33280103#4 391208990 391029009#0 391029009#1 41425835"/>
    </vehicle>
    <vehicle id="52" depart="52.00">
        <route edges="193384412#0 193384418 25895945#0 25895945#2 -202070429#6 -202070429#5 -202070429#4 -202070429#3 -202070429#0 257907860#0 25902677#0 137463478#1 137463478#2 137463478#3 29238188#0 -25895966#7 -32202510#1"/>
    </vehicle>
    <vehicle id="53" depart="53.00">
        <route edges="26180725#1 -36291830 -31620259 -201789796#1 -201789796#0 -201880159#1 -201880159#0 25625974 171007004 202070435#0 202070435#1 202070435#2 202070435#7 202070435#8 -37192505#2"/>
    </vehicle>
    <vehicle id="54" depart="54.00">
        <route edges="-4324827#1 -164051429#1 24970784#0 164051410#0 164051410#1 32199969#0 23009002#0 24978651 115082348#0 115082348#1 115082348#3 115082348#4 257907858#0 202070427#0 202070427#1 202070427#2 33280103#0 33280103#1 33280103#4 391208990 391029009#0 25626616#1 193384412#0"/>
    </vehicle>
    <vehicle id="55" depart="55.00">
        <route edges="25895945#0 25895945#2 202070429#7 201789794#0 308849647 266507550 30320943 23622426 -195073412#2 195073415 266507536"/>
    </vehicle>
    <vehicle id="56" depart="56.00">
        <route edges="-4058127#1 172368742#0 172368742#1 172368742#3 391029008#0 391029008#1 -33280103#5 -26176222#1 -25895864#1 25901706"/>
    </vehicle>
    <vehicle id="57" depart="57.00">
        <route edges="35073468#0 37193852#0 37193864 -146973236#1 -146973236#0 -54154969#3 -54154969#2 -54154971 -40059576#1 -40059576#0 -202070435#12 -202070435#10 -202070435#9 -202070435#7 -202070435#6 -202070435#1 -202070435#0 -201789798#1 -201789799#2 151167720#0 151167720#1 25596851#1 149045267 149045269#0 149045269#1 149045269#2 -202070429#9 -202070429#6 -202070429#5 -202070429#4 -202070429#3 -202070429#0 202070427#0 25796375#1 25796375#2 25638527 32202927#0"/>
    </vehicle>
    <vehicle id="58" depart="58.00">
        <route edges="32350901#1 32350901#2 201789797#0 -25597196#12 -25597196#11 -25597196#9 -153692837#3 -153692837#2 -153692837#1 -153692837#0 28132836#0 -175761127#15"/>
    </vehicle>
    <vehicle id="59" depart="59.00">
        <route edges="165520706 -140684001 -233673425#1 -266567307#1 -30404124 30417892 266567308#0 32009827 266567303 266567294#0 31342064#0 305495773#0 266507551 266507552#0 202070429#0 202070429#2 202070429#4 153692837#0 153692837#1 153692837#2 153692837#3 25597196#7 25597196#10 25597196#12 -201789797#1 201789799#0 201789799#2 201789798#0 202070435#0 202070435#1 202070435#2 202070435#7 202070435#8 202070435#10 37192508#0 215826160#0 215826160#1 215826160#2 -215826160#0 -37192508#0"/>
    </vehicle>
    <vehicle id="60" depart="60.00">
        <route edges="25596855#0 -153692837#1 -153692837#0 -202070429#4 -202070429#3 -202070429#0 202070427#0 25796375#1 25901699 306876891#0 306876891#1 -25901699"/>
    </vehicle>
    <vehicle id="61" depart="61.00">
        <route edges="266507555 266507554 266507557#0 266507557#1 172368742#0 4061708#1 391029010 -25623126#2 -25623125#1"/>
    </vehicle>
    <vehicle id="62" depart="62.00">
        <route edges="144657087#2 144657087#3 26176222#0 26176222#1 33280103#4 391208990 391029009#0 391029009#1 41425835 151167747 39704923 266507553 48395120 32976755 327975020 327975024 327975019 28132017 32976751 146973222 39577538 306793671 157305700#0 157305700#3 157305700#4 40059576#1 54154971 54154969#0 54154969#3 146973236#0 146973236#1 -37193864 -37193852#0"/>
    </vehicle>
    <vehicle id="63" depart="63.00">
        <route edges="171007007#1 52918687#0 52918687#2 37192505#1 -202070435#9 -202070435#7 -202070435#6 -202070435#1 10941820 201880159#0 201880159#1 201880159#2 201789796#1 30320943 378466167 266507548 257907861 151167740 266507555 266507554 266507557#0 266507557#1 172368742#0 172368742#1 172368742#3 391029008#0 391029008#1 4942575#0 4942575#2 31342351#0 274823622#0"/>
    </vehicle>
    <vehicle id="64" depart="64.00">
        <route edges="266567304#0 25797090#0 201444272#0 201444272#1 24846867#1 24846867#3 25796398#0 305495773#0 266507551 266507552#0 202070427#0 202070427#1 202070427#2 33280103#0 33280103#1 33280103#4 97304242#0 25626605#0 25626605#1 25626605#2 -39863101 -39863084#2 -39863084#1"/>
    </vehicle>
    <vehicle id="65" depart="65.00">
        <route edges="115082348#4 257907858#0 257907860#0 31894763#0 137463475#0 116765457#0 28132014#0 42745460 -24977473#2 -24970784#3 164051429#0 4324827#0 203971381#0"/>
    </vehicle>
    <vehicle id="66" depart="66.00">
        <route edges="25596855#0 -153692837#1 -153692837#0 202070429#5 202070429#6 202070429#7 201789794#0 308849647 266507550 30320943 378466167 266507548 257907861 151167740 266507555"/>
    </vehicle>
    <vehicle id="67" depart="67.00">
        <route edges="42745460 -24977473#2 164051410#0 164051410#1 32199969#0 23009002#0 24978651 115082348#0 115082348#1 115082348#3 115082348#4 257907858#0 202070429#0"/>
    </vehicle>
    <vehicle id="68" depart="68.00">
        <route edges="215826160#1 215826160#2 -215826160#0 -37192508#0 -202070435#10 -202070435#9 -202070435#7 -202070435#6 -202070435#1 -202070435#0 -201789798#1 -201789799#2 -201789799#1 -30482638#11 -30482638#8 -30482638#7 -30482638#6 25640150 -92026769#12"/>
    </vehicle>
    <vehicle id="69" depart="69.00">
        <route edges="-97304242#4 -97304242#3 -97304242#1 -33280103#5 -33280103#3 -33280103#0 33280102#0 33280102#1 33280102#2 25796375#1 25901699 306876891#0 306876891#1 -25901699"/>
    </vehicle>
    <vehicle id="70" depart="70.00">
        <route edges="266507542 39704923 266507553 39704918 28091397#1 266507547 -266507550 -308849647 -201789794#3 -202070429#9 -202070429#6 -202070429#5 -202070429#4 -202070429#3 -202070429#0 257907860#0 305390325#0 305390325#3 266567304#0 266567301#1 64464420 25955089 64464430 64464432#0 64464432#2 -24991571 145069303#0 -24692391#3 144659495 32200762#0 32200762#1 -144659492"/>
    </vehicle>
    <vehicle id="71" depart="71.00">
        <route edges="37547253 92026769#2 92026769#3 -25640375#3 -25640375#2 -25640375#0 -25640157#0 25573260#0 25573260#1 25573260#2 -25597196#9 -153692837#3 -153692837#2 -153692837#1 -153692837#0 -202070429#4 -202070429#3 -202070429#0 257907860#0 25902677#0 137463478#1 137463478#2 137463478#3 29238188#0 29238188#3 -29027727#9"/>
    </vehicle>
    <vehicle id="72" depart="72.00">
        <route edges="30320943 378466167 266507548 32976755 327975020 327975024 327975019"/>
    </vehicle>
    <vehicle id="73" depart="73.00">
        <route edges="201880159#1 149044751#0 149045845 149626676#0 149626676#1 149045269#2 -202070429#9 -202070429#6 -202070429#5 153692837#0 153692837#1 153692837#2 153692837#3 -25597196#6 -25597196#5"/>
    </vehicle>
    <vehicle id="74" depart="74.00">
        <route edges="-25640149 25640148#1 25640148#2 -25640157#1 -25640157#0 30482638#8 30482638#9 201789799#0 201789799#2 201789798#0 202070435#0 202070435#1 202070435#2 202070435#7 202070435#8 -37192505#2 -52918687#2 -157306362#2 171007020#1 171007020#2"/>
    </vehicle>
    <vehicle id="75" depart="75.00">
        <route edges="27781947#0 27781947#4 27781947#5 -97304242#3 -97304242#1 -33280103#5 -33280103#3 -33280103#0 33280102#0 33280102#1 33280102#2 33280102#3 257907860#0 25902677#0"/>
    </vehicle>
    <vehicle id="76" depart="76.00">
        <route edges="274823622#1 274823622#2 274823622#3 -25895961 25638529 25901702 -25638527 -25796375#2 -25796375#1 33280102#3 202070429#0 202070429#2 202070429#4 202070429#5 202070429#6 202070429#7 201789794#0 308849647 266507550 30320943 378466167 266507548 32976755 327975020 327975024 327975019 28132017 32976751 146973222 39577538 39577540 157305703#1 -138300617#4 -138300617#3 138300629 306793669-AddedOnRampEdge 306793669"/>
    </vehicle>
    <vehicle id="77" depart="77.00">
        <route edges="202070429#5 -25597372 25640093#1 25640093#2 25640093#3 25640093#4 -25640098#0 25640099"/>
    </vehicle>
    <vehicle id="78" depart="78.00">
        <route edges="-233673425#1 -266567307#1 -30404124 30417892 266567308#0 32009827 266567303 266567294#0 31342064#0 305495773#0 266507551 266507552#0 202070429#0 202070429#2 202070429#4 202070429#5 202070429#6 202070429#7 201789794#0 308849647 266507550 30320943 378466167 266507548 32976755 327975020 327975024 327975019 28132017 32976751 146973222 39577538 306793671 157305700#0 157305700#3 157305700#4 40059576#1 171007007#0 171007007#1 171007020#0 -157306362#1"/>
    </vehicle>
    <vehicle id="79" depart="79.00">
        <route edges="-60066780 -25640093#4 -25596861#0 -202070429#0 257907860#0 25902677#0 137463478#1 137463478#2 137463478#3 29238188#0 29238188#3 152077572#0 54858974 30399316#0"/>
    </vehicle>
    <vehicle id="81" depart="81.00">
        <route edges="-25344437#7 -25344437#6 -25367735#1 30399322#2 30399319 -152077572#2 -29027727#9 -29027727#8 -29027727#6 -29027727#4 -29027727#2 -201444272#4 -201444272#2 -201444272#0 30404130#0 30404130#1 64464420 24989982#0 -165520703#4 -24989986 165520706 -140684001 -233673425#1 -266567307#1 -30404124 30417892 266567308#0 32009827 266567303"/>
    </vehicle>
    <vehicle id="82" depart="82.00">
        <route edges="32350901#2 201789797#0 -25597196#12 -25597196#11 -25597196#9 -153692837#3 -153692837#2 -153692837#1 -153692837#0 -202070429#4 -202070429#3 -202070429#0 257907860#0 305390325#0 305390325#3 266567304#0 266567301#1 64464420"/>
    </vehicle>
    <vehicle id="83" depart="83.00">
        <route edges="193384418 25895945#0 25895945#2 202070429#7 201789794#0 308849647 266507550 30320943 378466167 266507548 257907861 151167740 266507555 266507554 266507557#0 266507557#1 172368742#0 4061708#1 391029010 25623127#0 -25638677 25623128#1 25623128#2 25623128#3 25623128#4"/>
    </vehicle>
    <vehicle id="84" depart="84.00">
        <route edges="149045269#0 149045269#1 149045269#2 -202070429#9 -202070429#6 -202070429#5 -202070429#4 -202070429#3 -202070429#0 257907860#0 31894763#0 137463475#0"/>
    </vehicle>
    <vehicle id="85" depart="85.00">
        <route edges="25625974 171007004 202070435#0 10941820 201880159#0 201880159#1 201880159#2 201789796#1 30320943 378466167 266507548 257907861 151167740 266507555 266507554 266507557#0 266507557#1 172368742#0 28132718 -158180482#0 -28132749#1"/>
    </vehicle>
    <vehicle id="86" depart="86.00">
        <route edges="-31342351#1 31342349#0 4942408 54858973#0 25367735#1 25344437#6 25626777#0 -137247861#1 -137247861#0 -25626777#2"/>
    </vehicle>
    <vehicle id="87" depart="87.00">
        <route edges="-29238188#2 -137463478#3 -137463478#2 -137463478#1 25796398#0 305495773#0 266507551 266507552#0 202070429#0 202070429#2 202070429#4 202070429#5 202070429#6 202070429#7 -149045269#3 -149045269#1 -149045269#0 25596993 149045845 -149045266 201789796#1 -266507550 -308849647 -201789794#3"/>
    </vehicle>
    <vehicle id="88" depart="88.00">
        <route edges="153692841#1 153692837#5 -30482638#6 -30482638#2 -30482638#1 -54154921#3 -42745461#1"/>
    </vehicle>
    <vehicle id="90" depart="90.00">
        <route edges="-25597196#12 -25573246#1 -25573246#0 30482638#9 201789799#0 201789799#2 201789798#0 202070435#0 10941820 201880159#0 201880159#1 201880159#2 201789796#1 30320943 378466167 266507548 32976755 327975020 327975024 327975019 28132017 32976751 146973222 39577538"/>
    </vehicle>
    <vehicle id="92" depart="92.00">
        <route edges="266507538 266507539 4058141 266507543 266507532 327975022 39704919 28091397#0 28091397#1 266507547 201789795 36291830 -26180725#2 28132852 39704923"/>
    </vehicle>
    <vehicle id="94" depart="94.00">
        <route edges="-35779587 25626605#2 25626605#4 25625950 391029007 391029009#0 25626616#1 193384412#0 193384418 25895945#0 175761127#8 175761127#10"/>
    </vehicle>
    <vehicle id="95" depart="95.00">
        <route edges="-28132014#2 24978651 115082348#0 115082348#1 115082348#3 115082348#4 257907858#0 202070429#0 202070429#2 202070429#4 202070429#5 202070429#6 202070429#7 -149045269#3 -149045269#1 -149045269#0 25596993 149045845 -149045266 201789796#1 -266507550"/>
    </vehicle>
    <vehicle id="96" depart="96.00">
        <route edges="-380273343 -24537982#4 -24537982#1 29048562#0 32009682 32009683#0 11014139#0 64464405 266567306 32009827 266567303 266567294#0 31342064#0 305495773#0 266507551 266507552#0 202070429#0 202070429#2 202070429#4 202070429#5 202070429#6 202070429#7 201789794#0 308849647 266507550 30320943 378466167 266507548 32976755 327975020 327975024 327975019 28132017 32976751 146973222 39577538 39577540 157305703#1 -138300617#4 -138300617#3 138300629 306793669-AddedOnRampEdge 306793669 306793669-AddedOffRampEdge 32976752"/>
    </vehicle>
    <vehicle id="97" depart="97.00">
        <route edges="-28132014#2 24978651 115082348#0 115082348#1 115082348#3 115082348#4 257907858#0 202070429#0 202070429#2 202070429#4 202070429#5 202070429#6 202070429#7 201789794#0 308849647 266507550 30320943 378466167 266507548 32976755 327975020 327975024 327975019 28132017 32976751 146973222 39577538 306793671 157305700#0 157305700#3 157305700#4 40059576#1 171007007#0"/>
    </vehicle>
    <vehicle id="98" depart="98.00">
        <route edges="158180482#0 -28132718 41425835 151167747 39704923 266507553 39704918 28091397#1 266507547 -201789796#1 -201789796#0 -201880159#1 -201880159#0 25625974 171007004"/>
    </vehicle>
    <vehicle id="99" depart="99.00">
        <route edges="153692837#5 -30482638#6 -30482638#2 -30482638#1 -54154921#3 -24977473#2 164051410#0 164051410#1 32199969#0 23009002#0"/>
    </vehicle>
    <vehicle id="100" depart="100.00">
        <route edges="64464405 266567306 32009827 266567303 266567294#0 31342064#0 31894763#0 137463475#0 116765457#0 28132014#0 42745460 54154921#0 30482638#0 30482638#2 25640150 -92026769#12 25640148#0"/>
    </vehicle>
    <vehicle id="101" depart="101.00">