<?xml version="1.0"?>
<!-- generated on 2016-11-04 15:07:10.414621 by $Id: randomTrips.py 17235 2014-11-03 10:53:02Z behrisch $
  options: -n ingolstadt-north-netedit.net.xml -o ingolstadt-north.trips.xml -r ingolstadt-north-netedit.rou.xml -e 1800 -L
-->
<trips>
    <trip id="0" depart="0.00" from="157305703#1" to="26180727" />
    <trip id="1" depart="1.00" from="39697943" to="-30482638#2" />
    <trip id="2" depart="2.00" from="202070429#4" to="-30482638#1" />
    <trip id="3" depart="3.00" from="266507540" to="27761238#0" />
    <trip id="4" depart="4.00" from="266507551" to="31342064#0" />
    <trip id="5" depart="5.00" from="25901702" to="202070429#7" />
    <trip id="6" depart="6.00" from="266507537" to="144657087#0" />
    <trip id="7" depart="7.00" from="25596851#0" to="25573254" />
    <trip id="8" depart="8.00" from="39577540" to="25344437#6" />
    <trip id="9" depart="9.00" from="39704922" to="28133199" />
    <trip id="10" depart="10.00" from="-24978651" to="215826160#0" />
    <trip id="11" depart="11.00" from="64464430" to="-115082348#0" />
    <trip id="12" depart="12.00" from="-158180482#0" to="152077572#0" />
    <trip id="13" depart="13.00" from="306793669-AddedOnRampEdge" to="175761127#10" />
    <trip id="14" depart="14.00" from="39603438#1" to="-28133177#0" />
    <trip id="15" depart="15.00" from="25797433#2" to="-25640375#2" />
    <trip id="16" depart="16.00" from="266507537" to="-201789799#1" />
    <trip id="17" depart="17.00" from="201789797#2" to="-137463478#3" />
    <trip id="18" depart="18.00" from="327975020" to="-25797433#1" />
    <trip id="19" depart="19.00" from="306793669-AddedOnRampEdge" to="266507545" />
    <trip id="20" depart="20.00" from="137247861#1" to="30482638#2" />
    <trip id="21" depart="21.00" from="28091397#0" to="-25597196#3" />
    <trip id="22" depart="22.00" from="25596861#2" to="202070429#4" />
    <trip id="23" depart="23.00" from="25626605#0" to="266507538" />
    <trip id="24" depart="24.00" from="31894763#0" to="39704923" />
    <trip id="25" depart="25.00" from="-27761238#1" to="29027727#0" />
    <trip id="26" depart="26.00" from="-25597196#12" to="266565302" />
    <trip id="27" depart="27.00" from="145069303#0" to="-193384418" />
    <trip id="28" depart="28.00" from="137463477#0" to="26176223#0" />
    <trip id="29" depart="29.00" from="-175761127#13" to="64464397#0" />
    <trip id="30" depart="30.00" from="-118607469#1" to="-25640097#1" />
    <trip id="31" depart="31.00" from="-28133181#1" to="28114295#0" />
    <trip id="32" depart="32.00" from="29238187#1" to="36291830" />
    <trip id="33" depart="33.00" from="25797433#2" to="-25640375#3" />
    <trip id="34" depart="34.00" from="25192758" to="31342347" />
    <trip id="35" depart="35.00" from="146973189" to="137463475#0" />
    <trip id="36" depart="36.00" from="323248155#0" to="-90587323" />
    <trip id="37" depart="37.00" from="25597196#12" to="-29238187#1" />
    <trip id="38" depart="38.00" from="-25797090#1" to="-308849647" />
    <trip id="39" depart="39.00" from="29027727#5" to="-152077572#2" />
    <trip id="40" depart="40.00" from="164051429#0" to="-37192507#0" />
    <trip id="41" depart="41.00" from="266507538" to="54858974" />
    <trip id="42" depart="42.00" from="-37192504" to="-25901651#4" />
    <trip id="43" depart="43.00" from="-25192758" to="202070429#6" />
    <trip id="44" depart="44.00" from="92026769#3" to="25797084#1" />
    <trip id="45" depart="45.00" from="39697943" to="266507540" />
    <trip id="46" depart="46.00" from="64464432#2" to="61326427#0" />
    <trip id="47" depart="47.00" from="32009827" to="25665375#0" />
    <trip id="48" depart="48.00" from="64464430" to="-164051429#1" />
    <trip id="49" depart="49.00" from="-30482638#7" to="-306793671" />
    <trip id="50" depart="50.00" from="-25623125#1" to="138300617#5" />
    <trip id="51" depart="51.00" from="-32202927#0" to="41425835" />
    <trip id="52" depart="52.00" from="193384412#0" to="-32202510#1" />
    <trip id="53" depart="53.00" from="26180725#1" to="-37192505#2" />
    <trip id="54" depart="54.00" from="-4324827#1" to="193384412#0" />
    <trip id="55" depart="55.00" from="25895945#0" to="266507536" />
    <trip id="56" depart="56.00" from="-4058127#1" to="25901706" />
    <trip id="57" depart="57.00" from="35073468#0" to="32202927#0" />
    <trip id="58" depart="58.00" from="32350901#1" to="-175761127#15" />
    <trip id="59" depart="59.00" from="165520706" to="-37192508#0" />
    <trip id="60" depart="60.00" from="25596855#0" to="-25901699" />
    <trip id="61" depart="61.00" from="266507555" to="-25623125#1" />
    <trip id="62" depart="62.00" from="144657087#2" to="-37193852#0" />
    <trip id="63" depart="63.00" from="171007007#1" to="274823622#0" />
    <trip id="64" depart="64.00" from="266567304#0" to="-39863084#1" />
    <trip id="65" depart="65.00" from="115082348#4" to="203971381#0" />
    <trip id="66" depart="66.00" from="25596855#0" to="266507555" />
    <trip id="67" depart="67.00" from="42745460" to="202070429#0" />
    <trip id="68" depart="68.00" from="215826160#1" to="-92026769#12" />
    <trip id="69" depart="69.00" from="-97304242#4" to="-25901699" />
    <trip id="70" depart="70.00" from="266507542" to="-144659492" />
    <trip id="71" depart="71.00" from="37547253" to="-29027727#9" />
    <trip id="72" depart="72.00" from="30320943" to="327975019" />
    <trip id="73" depart="73.00" from="201880159#1" to="-25597196#5" />
    <trip id="74" depart="74.00" from="-25640149" to="171007020#2" />
    <trip id="75" depart="75.00" from="27781947#0" to="25902677#0" />
    <trip id="76" depart="76.00" from="274823622#1" to="306793669" />
    <trip id="77" depart="77.00" from="202070429#5" to="25640099" />
    <trip id="78" depart="78.00" from="-233673425#1" to="-157306362#1" />
    <trip id="79" depart="79.00" from="-60066780" to="30399316#0" />
    <trip id="80" depart="80.00" from="266507546" to="24989879" />
    <trip id="81" depart="81.00" from="-25344437#7" to="266567303" />
    <trip id="82" depart="82.00" from="32350901#2" to="64464420" />
    <trip id="83" depart="83.00" from="193384418" to="25623128#4" />
    <trip id="84" depart="84.00" from="149045269#0" to="137463475#0" />
    <trip id="85" depart="85.00" from="25625974" to="-28132749#1" />
    <trip id="86" depart="86.00" from="-31342351#1" to="-25626777#2" />
    <trip id="87" depart="87.00" from="-29238188#2" to="-201789794#3" />
    <trip id="88" depart="88.00" from="153692841#1" to="-42745461#1" />
    <trip id="89" depart="89.00" from="266507536" to="140684000#0" />
    <trip id="90" depart="90.00" from="-25597196#12" to="39577538" />
    <trip id="91" depart="91.00" from="30399319" to="203971379#0" />
    <trip id="92" depart="92.00" from="266507538" to="39704923" />
    <trip id="93" depart="93.00" from="4324827#0" to="266507544" />
    <trip id="94" depart="94.00" from="-35779587" to="175761127#10" />
    <trip id="95" depart="95.00" from="-28132014#2" to="-266507550" />
    <trip id="96" depart="96.00" from="-380273343" to="32976752" />
    <trip id="97" depart="97.00" from="-28132014#2" to="171007007#0" />
    <trip id="98" depart="98.00" from="158180482#0" to="171007004" />
    <trip id="99" depart="99.00" from="153692837#5" to="23009002#0" />
    <trip id="100" depart="100.00" from="64464405" to="25640148#0" />
    <trip id="101" depart="101.00" from="26180727" to="266507544" />
    <trip id="102" depart="102.00" from="-29238188#3" to="28132813" />
    <trip id="103" depart="103.00" from="25596855#1" to="25796388" />
    <trip id="104" depart="104.00" from="35073468#1" to="215826160#2" />
    <trip id="105" depart="105.00" from="115082348#1" to="32009683#0" />
    <trip id="106" depart="106.00" from="-39863101" to="-25623128#5" />
    <trip id="107" depart="107.00" from="-157305700#2" to="-138300617#4" />
    <trip id="108" depart="108.00" from="85564606" to="25623128#4" />
    <trip id="109" depart="109.00" from="-175761127#11" to="41139095#1" />
    <trip id="110" depart="110.00" from="25895945#2" to="-61326427#0" />
    <trip id="111" depart="111.00" from="-175761127#9" to="391029009#0" />
    <trip id="112" depart="112.00" from="-29205273#1" to="266507538" />
    <trip id="113" depart="113.00" from="25640093#6" to="202070427#0" />
    <trip id="114" depart="114.00" from="25623125#2" to="27761238#2" />
    <trip id="115" depart="115.00" from="32199969#0" to="-35743273" />
    <trip id="116" depart="116.00" from="-29027727#8" to="202070429#0" />
    <trip id="117" depart="117.00" from="25596855#1" to="25640093#0" />
    <trip id="118" depart="118.00" from="306793670#0" to="274823622#1" />
    <trip id="119" depart="119.00" from="-28132865" to="266507534.0" />
    <trip id="120" depart="120.00" from="-27761238#1" to="-35073468#1" />
    <trip id="121" depart="121.00" from="-30482638#1" to="30404130#1" />
    <trip id="122" depart="122.00" from="-29238187#2" to="266507537" />
    <trip id="123" depart="123.00" from="-140684001" to="29238187#0" />
    <trip id="124" depart="124.00" from="-40059576#0" to="27781907#1" />
    <trip id="125" depart="125.00" from="327975024" to="28132017" />
    <trip id="126" depart="126.00" from="-25597196#9" to="71900674#0" />
    <trip id="127" depart="127.00" from="-37192507#0" to="115082348#3" />
    <trip id="128" depart="128.00" from="116765457#0" to="137463474#0" />
    <trip id="129" depart="129.00" from="39704924#1" to="24989879" />
    <trip id="130" depart="130.00" from="27761238#0" to="-391029010" />
    <trip id="131" depart="131.00" from="257907860#0" to="-149045269#3" />
    <trip id="132" depart="132.00" from="151167740" to="-137247861#1" />
    <trip id="133" depart="133.00" from="-25993505#3" to="138300628" />
    <trip id="134" depart="134.00" from="144657087#3" to="-25638466" />
    <trip id="135" depart="135.00" from="27761238#3" to="27761238#2" />
    <trip id="136" depart="136.00" from="25955089" to="32976751" />
    <trip id="137" depart="137.00" from="-25640093#6" to="327975024" />
    <trip id="138" depart="138.00" from="25344437#6" to="266565299" />
    <trip id="139" depart="139.00" from="25640146" to="90587321#0" />
    <trip id="140" depart="140.00" from="-266565299" to="26180725#1" />
    <trip id="141" depart="141.00" from="54154969#0" to="37192507#1" />
    <trip id="142" depart="142.00" from="137463478#3" to="30399322#4" />
    <trip id="143" depart="143.00" from="-30482638#1" to="-37192508#0" />
    <trip id="144" depart="144.00" from="327975020" to="161678034#0" />
    <trip id="145" depart="145.00" from="27781947#5" to="25192758" />
    <trip id="146" depart="146.00" from="-137463478#1" to="32976752" />
    <trip id="147" depart="147.00" from="30399325" to="-39863084#2" />
    <trip id="148" depart="148.00" from="266507555" to="23009002#0" />
    <trip id="149" depart="149.00" from="30482638#0" to="-42745461#1" />
    <trip id="150" depart="150.00" from="-25344437#7" to="-39577538" />
    <trip id="151" depart="151.00" from="-32009683#1" to="30417892" />
    <trip id="152" depart="152.00" from="-25595895#0" to="-144657087#2" />
    <trip id="153" depart="153.00" from="-32202927#2" to="25640149" />
    <trip id="154" depart="154.00" from="30320943" to="25623128#5" />
    <trip id="155" depart="155.00" from="-25993505#3" to="37192508#0" />
    <trip id="156" depart="156.00" from="64464405" to="201880159#1" />
    <trip id="157" depart="157.00" from="306793669-AddedOffRampEdge" to="266507548" />
    <trip id="158" depart="158.00" from="-32202927#1" to="202070427#1" />
    <trip id="159" depart="159.00" from="-202070435#6" to="266507536" />
    <trip id="160" depart="160.00" from="-54154921#3" to="-25626777#2" />
    <trip id="161" depart="161.00" from="327975022" to="202070427#1" />
    <trip id="162" depart="162.00" from="202070429#2" to="92026769#1" />
    <trip id="163" depart="163.00" from="-25640145#4" to="-137463475#1" />
    <trip id="164" depart="164.00" from="274823622#0" to="32976750" />
    <trip id="165" depart="165.00" from="35073468#2" to="25640145#0" />
    <trip id="166" depart="166.00" from="116765457#0" to="-25797433#1" />
    <trip id="167" depart="167.00" from="306793670#1-AddedOnRampEdge" to="203971379#1" />
    <trip id="168" depart="168.00" from="54858973#0" to="306876891#0" />
    <trip id="169" depart="169.00" from="137463478#1" to="-25597196#5" />
    <trip id="170" depart="170.00" from="4061708#1" to="-39863084#3" />
    <trip id="171" depart="171.00" from="25597196#0" to="-202070429#5" />
    <trip id="172" depart="172.00" from="32007121" to="-153220338#1" />
    <trip id="173" depart="173.00" from="266507557#1" to="-25596974#1" />
    <trip id="174" depart="174.00" from="25955089" to="140684000#0" />
    <trip id="175" depart="175.00" from="32199989#0" to="-25596851#0" />
    <trip id="176" depart="176.00" from="-25796964#0" to="-202070429#9" />
    <trip id="177" depart="177.00" from="203971381#0" to="327975019" />
    <trip id="178" depart="178.00" from="-203971378#1" to="-274823622#3" />
    <trip id="179" depart="179.00" from="-161678034#2" to="-36291830" />
    <trip id="180" depart="180.00" from="32976751" to="-29027727#6" />
    <trip id="181" depart="181.00" from="26973015" to="32976750" />
    <trip id="182" depart="182.00" from="149045269#0" to="193384418" />
    <trip id="183" depart="183.00" from="306793669-AddedOnRampEdge" to="25895864#0" />
    <trip id="184" depart="184.00" from="-41139095#2" to="25797084#1" />
    <trip id="185" depart="185.00" from="-24537982#4" to="25573267#1" />
    <trip id="186" depart="186.00" from="266507539" to="-37193864" />
    <trip id="187" depart="187.00" from="-158180483#1" to="201789796#1" />
    <trip id="188" depart="188.00" from="-146973236#1" to="27781908#0" />
    <trip id="189" depart="189.00" from="35073468#1" to="-35743389#1" />
    <trip id="190" depart="190.00" from="31342351#0" to="266507553" />
    <trip id="191" depart="191.00" from="-25623128#4" to="30399322#2" />
    <trip id="192" depart="192.00" from="-24983010#2" to="-30404124" />
    <trip id="193" depart="193.00" from="25902677#0" to="-26176223#1" />
    <trip id="194" depart="194.00" from="-36291830" to="54858974" />
    <trip id="195" depart="195.00" from="37681592#5" to="92026769#4" />
    <trip id="196" depart="196.00" from="-193384418" to="-164051410#1" />
    <trip id="197" depart="197.00" from="25623127#0" to="25640375#1" />
    <trip id="198" depart="198.00" from="202070435#11" to="266565295#0" />
    <trip id="199" depart="199.00" from="266507550" to="391029008#1" />
    <trip id="200" depart="200.00" from="54154922#0" to="-202070435#9" />
    <trip id="201" depart="201.00" from="153692837#5" to="24977473#0" />
    <trip id="202" depart="202.00" from="25796388" to="37193858#1" />
    <trip id="203" depart="203.00" from="-25640148#1" to="-25797433#3" />
    <trip id="204" depart="204.00" from="164051398" to="115082348#0" />
    <trip id="205" depart="205.00" from="-92026769#1" to="164051429#0" />
    <trip id="206" depart="206.00" from="39698489" to="-25597196#12" />
    <trip id="207" depart="207.00" from="-115082348#5" to="28232068#0" />
    <trip id="208" depart="208.00" from="23622426" to="-25640093#5" />
    <trip id="209" depart="209.00" from="327975022" to="-97304242#1" />
    <trip id="210" depart="210.00" from="-29205273#1" to="146973170" />
    <trip id="211" depart="211.00" from="24983010#0" to="30399316#2" />
    <trip id="212" depart="212.00" from="-266507543" to="25895864#1" />
    <trip id="213" depart="213.00" from="-202070429#5" to="116765457#0" />
    <trip id="214" depart="214.00" from="97304242#6" to="146973236#1" />
    <trip id="215" depart="215.00" from="-146973236#1" to="-32202927#0" />
    <trip id="216" depart="216.00" from="-25596974#1" to="25665375#0" />
    <trip id="217" depart="217.00" from="-28132014#2" to="-54858974" />
    <trip id="218" depart="218.00" from="37192505#1" to="-39698490" />
    <trip id="219" depart="219.00" from="391029008#1" to="41139095#1" />
    <trip id="220" depart="220.00" from="31342350#1" to="-25367735#1" />
    <trip id="221" depart="221.00" from="327975020" to="-25623125#1" />
    <trip id="222" depart="222.00" from="97304242#0" to="25665375#0" />
    <trip id="223" depart="223.00" from="-25895966#7" to="26176222#1" />
    <trip id="224" depart="224.00" from="39603438#0" to="25640098#1" />
    <trip id="225" depart="225.00" from="171007020#2" to="-29238188#3" />
    <trip id="226" depart="226.00" from="-27781947#5" to="25955089" />
    <trip id="227" depart="227.00" from="-37192505#2" to="306793670#1-AddedOnRampEdge" />
    <trip id="228" depart="228.00" from="64464405" to="-28132014#2" />
    <trip id="229" depart="229.00" from="-37192508#1" to="39863084#2" />
    <trip id="230" depart="230.00" from="-202070435#12" to="28132836#0" />
    <trip id="231" depart="231.00" from="175761127#2" to="64464405" />
    <trip id="232" depart="232.00" from="-28114295#1" to="-380273343" />
    <trip id="233" depart="233.00" from="327975022" to="327975022" />
    <trip id="234" depart="234.00" from="4061708#1" to="54858973#0" />
    <trip id="235" depart="235.00" from="31342349#0" to="-29238187#2" />
    <trip id="236" depart="236.00" from="-26176222#1" to="41425835" />
    <trip id="237" depart="237.00" from="266507539" to="305390325#0" />
    <trip id="238" depart="238.00" from="64464397#0" to="-92026769#3" />
    <trip id="239" depart="239.00" from="-24978651" to="-25895961" />
    <trip id="240" depart="240.00" from="-37193857" to="39697943" />
    <trip id="241" depart="241.00" from="-29027727#6" to="202070429#5" />
    <trip id="242" depart="242.00" from="434713632" to="23009002#0" />
    <trip id="243" depart="243.00" from="25640093#3" to="-157305702#2" />
    <trip id="244" depart="244.00" from="-391029014#0" to="-158180483#0" />
    <trip id="245" depart="245.00" from="71900674#2" to="201444272#0" />
    <trip id="246" depart="246.00" from="151167740" to="30482638#8" />
    <trip id="247" depart="247.00" from="175761127#12" to="-25640375#3" />
    <trip id="248" depart="248.00" from="-32199969#4" to="266507536" />
    <trip id="249" depart="249.00" from="266567304#0" to="153220338#0" />
    <trip id="250" depart="250.00" from="-31620259" to="-171007007#0" />
    <trip id="251" depart="251.00" from="25573260#0" to="323248155#0" />
    <trip id="252" depart="252.00" from="391029009#0" to="-25640145#4" />
    <trip id="253" depart="253.00" from="-25640094" to="-25597196#12" />
    <trip id="254" depart="254.00" from="-202070435#10" to="-25626777#2" />
    <trip id="255" depart="255.00" from="266507538" to="-175761127#14" />
    <trip id="256" depart="256.00" from="-25623128#1" to="274823622#4" />
    <trip id="257" depart="257.00" from="25797315#2" to="4942575#2" />
    <trip id="258" depart="258.00" from="-37193852#0" to="-41139095#2" />
    <trip id="259" depart="259.00" from="-25796964#1" to="-25895943#3" />
    <trip id="260" depart="260.00" from="25597196#6" to="378466167" />
    <trip id="261" depart="261.00" from="266567304#0" to="25616922#0" />
    <trip id="262" depart="262.00" from="25595895#1" to="30399316#1" />
    <trip id="263" depart="263.00" from="25640093#1" to="202070431" />
    <trip id="264" depart="264.00" from="327975019" to="-266565299" />
    <trip id="265" depart="265.00" from="169739286" to="-25993505#5" />
    <trip id="266" depart="266.00" from="40059576#0" to="391029009#1" />
    <trip id="267" depart="267.00" from="32976755" to="-202070429#0" />
    <trip id="268" depart="268.00" from="30404124" to="151167747" />
    <trip id="269" depart="269.00" from="25993505#4" to="146973222" />
    <trip id="270" depart="270.00" from="25955089" to="-30482638#2" />
    <trip id="271" depart="271.00" from="39530041" to="97304242#8" />
    <trip id="272" depart="272.00" from="323248156#0" to="-116765457#1" />
    <trip id="273" depart="273.00" from="26071515#1" to="266507545" />
    <trip id="274" depart="274.00" from="153220338#0" to="39530041" />
    <trip id="275" depart="275.00" from="64464432#0" to="4061708#1" />
    <trip id="276" depart="276.00" from="32199969#5" to="-25596851#0" />
    <trip id="277" depart="277.00" from="25797084#2" to="35743389#0" />
    <trip id="278" depart="278.00" from="-149045269#1" to="35073468#3" />
    <trip id="279" depart="279.00" from="26973015" to="-24991571" />
    <trip id="280" depart="280.00" from="-25640093#2" to="-25640375#3" />
    <trip id="281" depart="281.00" from="32202764" to="-26180725#0" />
    <trip id="282" depart="282.00" from="-27781907#0" to="25596851#1" />
    <trip id="283" depart="283.00" from="164051410#1" to="25895864#0" />
    <trip id="284" depart="284.00" from="25597196#4" to="-90587323" />
    <trip id="285" depart="285.00" from="39863084#2" to="-25573246#0" />
    <trip id="286" depart="286.00" from="31342064#0" to="25895945#2" />
    <trip id="287" depart="287.00" from="64464430" to="-202070429#0" />
    <trip id="288" depart="288.00" from="-30482638#7" to="-52918687#5" />
    <trip id="289" depart="289.00" from="24692391#0" to="-42745461#1" />
    <trip id="290" depart="290.00" from="306793669-AddedOnRampEdge" to="-153692837#4" />
    <trip id="291" depart="291.00" from="-25192758" to="266507540" />
    <trip id="292" depart="292.00" from="-201789796#1" to="-25640097#1" />
    <trip id="293" depart="293.00" from="-25596855#3" to="158180483#1" />
    <trip id="294" depart="294.00" from="266567304#0" to="52918687#4" />
    <trip id="295" depart="295.00" from="146973222" to="-32199969#1" />
    <trip id="296" depart="296.00" from="-202070429#9" to="-202070435#7" />
    <trip id="297" depart="297.00" from="32930763" to="305390325#3" />
    <trip id="298" depart="298.00" from="29238187#1" to="-391029014#0" />
    <trip id="299" depart="299.00" from="64464420" to="30320943" />
    <trip id="300" depart="300.00" from="25640157#1" to="30482638#8" />
    <trip id="301" depart="301.00" from="274823622#4" to="266507557#1" />
    <trip id="302" depart="302.00" from="-273123309" to="-32009682" />
    <trip id="303" depart="303.00" from="-24977590#1" to="-25895943#2" />
    <trip id="304" depart="304.00" from="32009682" to="-54154922#1" />
    <trip id="305" depart="305.00" from="327975020" to="25596861#2" />
    <trip id="306" depart="306.00" from="4942575#0" to="25192758" />
    <trip id="307" depart="307.00" from="-97304242#4" to="52918687#4" />
    <trip id="308" depart="308.00" from="-25797090#1" to="25895966#0" />
    <trip id="309" depart="309.00" from="327975020" to="-26471933" />
    <trip id="310" depart="310.00" from="-41139095#2" to="35743405" />
    <trip id="311" depart="311.00" from="164051429#0" to="261448661" />
    <trip id="312" depart="312.00" from="306793670#0" to="-39863084#2" />
    <trip id="313" depart="313.00" from="305390325#0" to="151167747" />
    <trip id="314" depart="314.00" from="-92026769#12" to="266565299" />
    <trip id="315" depart="315.00" from="-24970784#3" to="-274823622#10" />
    <trip id="316" depart="316.00" from="-25955085" to="-25993505#3" />
    <trip id="317" depart="317.00" from="171007007#1" to="-24991571" />
    <trip id="318" depart="318.00" from="201880159#2" to="28091397#1" />
    <trip id="319" depart="319.00" from="25192758" to="115082348#4" />
    <trip id="320" depart="320.00" from="4061708#1" to="-37193858#1" />
    <trip id="321" depart="321.00" from="28132813" to="31342305" />
    <trip id="322" depart="322.00" from="25640375#0" to="92026769#4" />
    <trip id="323" depart="323.00" from="-35779587" to="-37192508#0" />
    <trip id="324" depart="324.00" from="-202070435#0" to="151167740" />
    <trip id="325" depart="325.00" from="201444272#0" to="-158180483#1" />
    <trip id="326" depart="326.00" from="153220338#0" to="-25573246#0" />
    <trip id="327" depart="327.00" from="-158180482#1" to="266507538" />
    <trip id="328" depart="328.00" from="30399319" to="33280103#0" />
    <trip id="329" depart="329.00" from="274823622#4" to="25596851#1" />
    <trip id="330" depart="330.00" from="-153692841#1" to="25797315#1" />
    <trip id="331" depart="331.00" from="-25640093#6" to="4942575#2" />
    <trip id="332" depart="332.00" from="92026769#1" to="327975020" />
    <trip id="333" depart="333.00" from="266507540" to="327975019" />
    <trip id="334" depart="334.00" from="32202510#0" to="33280102#0" />
    <trip id="335" depart="335.00" from="24989982#0" to="-149045269#0" />
    <trip id="336" depart="336.00" from="25901651#0" to="306793669-AddedOffRampEdge" />
    <trip id="337" depart="337.00" from="-24537982#1" to="25640150" />
    <trip id="338" depart="338.00" from="26180725#0" to="157306362#1" />
    <trip id="339" depart="339.00" from="25626605#2" to="-24537982#4" />
    <trip id="340" depart="340.00" from="-25573267#0" to="-25901651#4" />
    <trip id="341" depart="341.00" from="25596851#1" to="-306793671" />
    <trip id="342" depart="342.00" from="25901702" to="-137463478#3" />
    <trip id="343" depart="343.00" from="-32199989#0" to="-25597196#6" />
    <trip id="344" depart="344.00" from="25192758" to="-26471933" />
    <trip id="345" depart="345.00" from="-25640093#4" to="-26471933" />
    <trip id="346" depart="346.00" from="391029008#0" to="25895947#0" />
    <trip id="347" depart="347.00" from="-39863084#1" to="-25895943#3" />
    <trip id="348" depart="348.00" from="-25640145#3" to="-30482638#2" />
    <trip id="349" depart="349.00" from="28268963" to="-61326427#0" />
    <trip id="350" depart="350.00" from="28091397#0" to="25638466" />
    <trip id="351" depart="351.00" from="146973153" to="32202510#0" />
    <trip id="352" depart="352.00" from="266507555" to="-115082348#0" />
    <trip id="353" depart="353.00" from="215826160#0" to="151167720#1" />
    <trip id="354" depart="354.00" from="171007013#0" to="25665370#0" />
    <trip id="355" depart="355.00" from="-29027727#2" to="152077572#0" />
    <trip id="356" depart="356.00" from="-25625951" to="-30399316#1" />
    <trip id="357" depart="357.00" from="-37681592#4" to="215826160#1" />
    <trip id="358" depart="358.00" from="-25797090#1" to="-215826160#1" />
    <trip id="359" depart="359.00" from="27761238#0" to="-171007013#1" />
    <trip id="360" depart="360.00" from="-97304242#9" to="-52918687#2" />
    <trip id="361" depart="361.00" from="32202927#1" to="10941820" />
    <trip id="362" depart="362.00" from="32350852#0" to="-115082348#2" />
    <trip id="363" depart="363.00" from="202070435#0" to="-25595895#1" />
    <trip id="364" depart="364.00" from="-202070429#6" to="-202070429#0" />
    <trip id="365" depart="365.00" from="171007020#0" to="-54154971" />
    <trip id="366" depart="366.00" from="-41139095#0" to="151167740" />
    <trip id="367" depart="367.00" from="39530041" to="175761127#2" />
    <trip id="368" depart="368.00" from="25626777#0" to="266507557#0" />
    <trip id="369" depart="369.00" from="-137463478#2" to="25640151" />
    <trip id="370" depart="370.00" from="274823622#2" to="64464430" />
    <trip id="371" depart="371.00" from="203971378#0" to="153692837#2" />
    <trip id="372" depart="372.00" from="153692837#2" to="28132749#1" />
    <trip id="373" depart="373.00" from="266507551" to="31342064#0" />
    <trip id="374" depart="374.00" from="203971381#0" to="41139095#0" />
    <trip id="375" depart="375.00" from="25640097#1" to="26071515#1" />
    <trip id="376" depart="376.00" from="60064938#1" to="37192506#1" />
    <trip id="377" depart="377.00" from="35779587" to="28232068#0" />
    <trip id="378" depart="378.00" from="28132014#0" to="-32199969#4" />
    <trip id="379" depart="379.00" from="-25640094" to="-25895966#5" />
    <trip id="380" depart="380.00" from="-37192507#1" to="25623128#4" />
    <trip id="381" depart="381.00" from="171007013#2" to="-25623125#1" />
    <trip id="382" depart="382.00" from="-29238187#0" to="257907858#0" />
    <trip id="383" depart="383.00" from="202070427#2" to="28133177#0" />
    <trip id="384" depart="384.00" from="-391029010" to="39704924#0" />
    <trip id="385" depart="385.00" from="25595895#1" to="153220338#2" />
    <trip id="386" depart="386.00" from="164051429#0" to="110435734" />
    <trip id="387" depart="387.00" from="-28161105#1" to="149045267" />
    <trip id="388" depart="388.00" from="-54154969#2" to="306793670#1" />
    <trip id="389" depart="389.00" from="25797084#1" to="266507547" />
    <trip id="390" depart="390.00" from="25895943#3" to="25596855#1" />
    <trip id="391" depart="391.00" from="-24991571" to="-157305702#2" />
    <trip id="392" depart="392.00" from="37193864" to="-29238188#3" />
    <trip id="393" depart="393.00" from="25895947#1" to="138300629" />
    <trip id="394" depart="394.00" from="-25640094" to="202070429#7" />
    <trip id="395" depart="395.00" from="25797084#2" to="144659495" />
    <trip id="396" depart="396.00" from="-25573267#0" to="266507550" />
    <trip id="397" depart="397.00" from="-25616922#0" to="54154921#0" />
    <trip id="398" depart="398.00" from="-35073468#0" to="-193384412#0" />
    <trip id="399" depart="399.00" from="-32199989#1" to="144657087#4" />
    <trip id="400" depart="400.00" from="-157306362#2" to="146973153" />
    <trip id="401" depart="401.00" from="25638529" to="41139095#1" />
    <trip id="402" depart="402.00" from="25797433#1" to="35743389#3" />
    <trip id="403" depart="403.00" from="306876891#1" to="-151167720#1" />
    <trip id="404" depart="404.00" from="32199989#1" to="306793670#1" />
    <trip id="405" depart="405.00" from="-202070429#0" to="137247861#1" />
    <trip id="406" depart="406.00" from="39704924#0" to="35743389#0" />
    <trip id="407" depart="407.00" from="-203971378#1" to="-157306362#2" />
    <trip id="408" depart="408.00" from="39704924#0" to="266507535" />
    <trip id="409" depart="409.00" from="-25597196#5" to="-195073416" />
    <trip id="410" depart="410.00" from="115082348#4" to="203971381#0" />
    <trip id="411" depart="411.00" from="146973236#0" to="137247861#1" />