<?xml version="1.0" encoding="UTF-8"?>

<!-- generated on Fr 04 Nov 2016 15:09:54 CET by Netedit Version 0.26.0
<?xml version="1.0" encoding="UTF-8"?>

<configuration xmlns:xsi="http://www.w3.org/2001/XMLSchema-instance" xsi:noNamespaceSchemaLocation="http://sumo.dlr.de/xsd/netedit.exeConfiguration.xsd">

    <input>
        <sumo-net-file value="ingolstadt-north-netedit.net.xml"/>
    </input>

    <output>
        <output-file value="ingolstadt-north-netedit.net.xml"/>
    </output>

    <processing>
        <no-turnarounds value="true"/>
        <offset.disable-normalization value="true"/>
        <lefthand value="false"/>
        <junctions.corner-detail value="0"/>
    </processing>

    <visualisation>
        <registry-viewport value="true"/>
    </visualisation>

</configuration>
-->

<net version="0.25" xmlns:xsi="http://www.w3.org/2001/XMLSchema-instance" xsi:noNamespaceSchemaLocation="http://sumo.dlr.de/xsd/net_file.xsd">

    <location netOffset="-677864.29,-5403818.27" convBoundary="0.00,0.00,4301.21,3778.93" origBoundary="11.274814,48.736903,11.600582,48.795040" projParameter="+proj=utm +zone=32 +ellps=WGS84 +datum=WGS84 +units=m +no_defs"/>

    <edge id=":1051308709_0" function="internal">
        <lane id=":1051308709_0_0" index="0" disallow="tram rail_urban rail rail_electric ship" speed="13.89" length="6.12" shape="1419.90,490.51 1418.17,491.39 1416.90,492.37 1416.07,493.44 1415.71,494.61"/>
    </edge>
    <edge id=":1051308709_1" function="internal">
        <lane id=":1051308709_1_0" index="0" disallow="tram rail_urban rail rail_electric ship" speed="13.89" length="6.70" shape="1416.47,487.96 1415.71,494.61"/>
        <lane id=":1051308709_1_1" index="1" disallow="tram rail_urban rail rail_electric ship" speed="13.89" length="6.70" shape="1413.20,487.58 1412.43,494.23"/>
    </edge>
    <edge id=":1261109188_0" function="internal">
        <lane id=":1261109188_0_0" index="0" disallow="tram rail_urban rail rail_electric ship" speed="13.89" length="5.25" shape="1314.45,871.07 1312.59,872.03 1311.24,872.82 1310.41,873.44 1310.09,873.90"/>
    </edge>
    <edge id=":1261109188_1" function="internal">
        <lane id=":1261109188_1_0" index="0" disallow="tram rail_urban rail rail_electric ship" speed="13.89" length="5.10" shape="1310.63,868.78 1310.09,873.90"/>
        <lane id=":1261109188_1_1" index="1" disallow="tram rail_urban rail rail_electric ship" speed="13.89" length="5.10" shape="1307.36,868.35 1306.83,873.37"/>
    </edge>
    <edge id=":1261109188_3" function="internal">
        <lane id=":1261109188_3_0" index="0" disallow="tram rail_urban rail rail_electric ship" speed="13.89" length="4.91" shape="1300.32,872.32 1300.82,867.48"/>
        <lane id=":1261109188_3_1" index="1" disallow="tram rail_urban rail rail_electric ship" speed="13.89" length="4.91" shape="1303.57,872.85 1304.09,867.92"/>
    </edge>
    <edge id=":1261109191_0" function="internal">
        <lane id=":1261109191_0_0" index="0" disallow="tram rail_urban rail rail_electric ship" speed="13.89" length="7.44" shape="1337.11,875.23 1330.50,871.79"/>
    </edge>
    <edge id=":1261109191_1" function="internal">
        <lane id=":1261109191_1_0" index="0" disallow="tram rail_urban rail rail_electric ship" speed="13.89" length="7.85" shape="1337.11,875.23 1332.96,868.56"/>
    </edge>
    <edge id=":1261109191_2" function="internal">
        <lane id=":1261109191_2_0" index="0" disallow="tram rail_urban rail rail_electric ship" speed="13.89" length="7.87" shape="1335.77,866.82 1339.92,873.50"/>
    </edge>
    <edge id=":1261109191_3" function="internal">
        <lane id=":1261109191_3_0" index="0" disallow="tram rail_urban rail rail_electric ship" speed="13.89" length="5.52" shape="1335.77,866.82 1337.31,870.14 1336.96,871.97"/>
    </edge>
    <edge id=":1261109191_4" function="internal">
        <lane id=":1261109191_4_0" index="0" speed="13.89" length="6.70" shape="1336.96,871.97 1336.94,872.07 1334.68,872.62 1330.50,871.79"/>
    </edge>
    <edge id=":1264133552_0" function="internal">
        <lane id=":1264133552_0_0" index="0" disallow="tram rail_urban rail rail_electric ship" speed="8.33" length="9.79" shape="669.57,534.11 662.16,540.50"/>
    </edge>
    <edge id=":1264133552_1" function="internal">
        <lane id=":1264133552_1_0" index="0" disallow="tram rail_urban rail rail_electric ship" speed="5.55" length="8.26" shape="669.57,534.11 667.44,535.94 665.55,536.89 663.88,536.94 662.44,536.10"/>
    </edge>
    <edge id=":1264133552_2" function="internal">
        <lane id=":1264133552_2_0" index="0" disallow="tram rail_urban rail rail_electric ship" speed="5.55" length="7.88" shape="664.73,533.73 665.31,534.87 665.08,536.38 664.03,538.26 662.16,540.50"/>
    </edge>
    <edge id=":1315532866_0" function="internal">
        <lane id=":1315532866_0_0" index="0" disallow="tram rail_urban rail rail_electric ship" speed="13.89" length="3.19" shape="1449.72,1160.99 1453.04,1160.71"/>
        <lane id=":1315532866_0_1" index="1" disallow="tram rail_urban rail rail_electric ship" speed="13.89" length="3.19" shape="1449.72,1160.99 1451.53,1163.65"/>
        <lane id=":1315532866_0_2" index="2" disallow="tram rail_urban rail rail_electric ship" speed="13.89" length="3.19" shape="1448.44,1164.03 1450.03,1166.58"/>
    </edge>
    <edge id=":13876324_0" function="internal">
        <lane id=":13876324_0_0" index="0" disallow="tram rail_urban rail rail_electric bicycle pedestrian ship" speed="19.45" length="0.10" shape="3040.66,1267.65 3040.68,1267.66"/>
        <lane id=":13876324_0_1" index="1" disallow="tram rail_urban rail rail_electric bicycle pedestrian ship" speed="19.45" length="0.10" shape="3040.94,1264.37 3040.94,1264.37"/>
    </edge>
    <edge id=":139542_0" function="internal">
        <lane id=":139542_0_0" index="0" allow="private emergency authority army vip passenger hov taxi bus coach delivery truck trailer motorcycle evehicle custom1 custom2" speed="52.77" length="4.78" shape="2948.63,942.45 2950.40,946.88"/>
    </edge>
    <edge id=":139542_1" function="internal">
        <lane id=":139542_1_0" index="0" allow="private emergency authority army vip passenger hov taxi bus coach delivery truck trailer motorcycle evehicle custom1 custom2" speed="83.33" length="5.12" shape="2945.34,942.69 2946.83,947.68"/>
        <lane id=":139542_1_1" index="1" allow="private emergency authority army vip passenger hov taxi bus coach delivery truck trailer motorcycle evehicle custom1 custom2" speed="83.33" length="5.12" shape="2942.04,942.94 2943.53,947.83"/>
        <lane id=":139542_1_2" index="2" allow="private emergency authority army vip passenger hov taxi bus coach delivery truck trailer motorcycle evehicle custom1 custom2" speed="83.33" length="5.12" shape="2938.75,943.18 2940.23,947.99"/>
    </edge>
    <edge id=":139544_0" function="internal">
        <lane id=":139544_0_0" index="0" allow="private emergency authority army vip passenger hov taxi bus coach delivery truck trailer motorcycle evehicle custom1 custom2" speed="52.77" length="4.63" shape="2954.89,1564.20 2952.83,1568.35"/>
    </edge>
    <edge id=":139544_1" function="internal">
        <lane id=":139544_1_0" index="0" allow="private emergency authority army vip passenger hov taxi bus coach delivery truck trailer motorcycle evehicle custom1 custom2" speed="83.33" length="5.18" shape="2951.24,1563.17 2949.54,1568.12"/>
        <lane id=":139544_1_1" index="1" allow="private emergency authority army vip passenger hov taxi bus coach delivery truck trailer motorcycle evehicle custom1 custom2" speed="83.33" length="5.18" shape="2947.94,1563.01 2946.24,1567.90"/>
        <lane id=":139544_1_2" index="2" allow="private emergency authority army vip passenger hov taxi bus coach delivery truck trailer motorcycle evehicle custom1 custom2" speed="83.33" length="5.18" shape="2944.65,1562.85 2942.95,1567.68"/>
    </edge>
    <edge id=":139545_0" function="internal">
        <lane id=":139545_0_0" index="0" allow="private emergency authority army vip passenger hov taxi bus coach delivery truck trailer motorcycle evehicle custom1 custom2" speed="52.77" length="8.27" shape="2924.70,1584.40 2923.40,1576.24"/>
    </edge>
    <edge id=":139545_1" function="internal">
        <lane id=":139545_1_0" index="0" allow="private emergency authority army vip passenger hov taxi bus coach delivery truck trailer motorcycle evehicle custom1 custom2" speed="83.33" length="8.86" shape="2927.99,1584.64 2926.74,1575.91"/>
        <lane id=":139545_1_1" index="1" allow="private emergency authority army vip passenger hov taxi bus coach delivery truck trailer motorcycle evehicle custom1 custom2" speed="83.33" length="8.86" shape="2931.29,1584.87 2930.03,1576.11"/>
        <lane id=":139545_1_2" index="2" allow="private emergency authority army vip passenger hov taxi bus coach delivery truck trailer motorcycle evehicle custom1 custom2" speed="83.33" length="8.86" shape="2934.58,1585.11 2933.33,1576.31"/>
    </edge>
    <edge id=":139553_0" function="internal">
        <lane id=":139553_0_0" index="0" allow="private emergency authority army vip passenger hov taxi bus coach delivery truck trailer motorcycle evehicle custom1 custom2" speed="83.33" length="3.42" shape="2889.04,1971.45 2887.74,1968.29"/>
        <lane id=":139553_0_1" index="1" allow="private emergency authority army vip passenger hov taxi bus coach delivery truck trailer motorcycle evehicle custom1 custom2" speed="83.33" length="3.42" shape="2889.04,1971.45 2891.02,1968.66"/>
        <lane id=":139553_0_2" index="2" allow="private emergency authority army vip passenger hov taxi bus coach delivery truck trailer motorcycle evehicle custom1 custom2" speed="83.33" length="3.42" shape="2892.32,1971.83 2894.30,1969.04"/>
        <lane id=":139553_0_3" index="3" allow="private emergency authority army vip passenger hov taxi bus coach delivery truck trailer motorcycle evehicle custom1 custom2" speed="83.33" length="3.42" shape="2895.59,1972.21 2897.58,1969.41"/>
    </edge>
    <edge id=":1459264860_0" function="internal">
        <lane id=":1459264860_0_0" index="0" disallow="tram rail_urban rail rail_electric ship" speed="13.89" length="1.48" shape="2645.85,1620.55 2645.65,1620.23 2645.39,1619.98 2645.08,1619.80 2644.71,1619.69"/>
    </edge>
    <edge id=":1459264860_1" function="internal">
        <lane id=":1459264860_1_0" index="0" disallow="tram rail_urban rail rail_electric ship" speed="13.89" length="4.53" shape="2645.31,1616.45 2646.42,1616.77 2647.38,1617.32 2648.17,1618.08 2648.80,1619.06"/>
    </edge>
    <edge id=":1459264867_0" function="internal">
        <lane id=":1459264867_0_0" index="0" disallow="tram rail_urban rail rail_electric ship" speed="13.89" length="10.37" shape="2491.71,1626.44 2488.70,1626.17 2486.55,1625.97 2484.40,1625.75 2481.39,1625.44"/>
    </edge>
    <edge id=":1459264867_1" function="internal">
        <lane id=":1459264867_1_0" index="0" disallow="tram rail_urban rail rail_electric ship" speed="13.89" length="4.70" shape="2491.71,1626.44 2489.55,1625.81 2487.60,1624.32"/>
    </edge>
    <edge id=":1459264867_6" function="internal">
        <lane id=":1459264867_6_0" index="0" speed="13.89" length="6.50" shape="2487.60,1624.32 2485.86,1621.96 2484.32,1618.74"/>
    </edge>
    <edge id=":1459264867_2" function="internal">
        <lane id=":1459264867_2_0" index="0" disallow="tram rail_urban rail rail_electric ship" speed="13.89" length="7.57" shape="2487.39,1617.53 2488.47,1619.91 2489.60,1621.64 2490.78,1622.72 2491.99,1623.15"/>
    </edge>
    <edge id=":1459264867_3" function="internal">
        <lane id=":1459264867_3_0" index="0" disallow="tram rail_urban rail rail_electric ship" speed="13.89" length="13.24" shape="2487.39,1617.53 2488.32,1621.35 2487.63,1623.95 2485.32,1625.31 2481.39,1625.44"/>
    </edge>
    <edge id=":1459264867_4" function="internal">
        <lane id=":1459264867_4_0" index="0" disallow="tram rail_urban rail rail_electric ship" speed="13.89" length="5.72" shape="2481.72,1622.16 2483.42,1622.10 2484.42,1621.51 2484.72,1620.39 2484.32,1618.74"/>
    </edge>
    <edge id=":1459264867_5" function="internal">
        <lane id=":1459264867_5_0" index="0" disallow="tram rail_urban rail rail_electric ship" speed="13.89" length="10.32" shape="2481.72,1622.16 2484.72,1622.46 2486.86,1622.68 2488.99,1622.88 2491.99,1623.15"/>
    </edge>
    <edge id=":1459264869_0" function="internal">
        <lane id=":1459264869_0_0" index="0" disallow="tram rail_urban rail rail_electric ship" speed="13.89" length="10.02" shape="2633.16,1633.24 2630.19,1633.07 2628.16,1632.95 2626.12,1632.86 2623.15,1632.75"/>
    </edge>
    <edge id=":1459264869_1" function="internal">
        <lane id=":1459264869_1_0" index="0" disallow="tram rail_urban rail rail_electric ship" speed="13.89" length="5.78" shape="2633.16,1633.24 2629.47,1632.51 2627.91,1631.24"/>
    </edge>
    <edge id=":1459264869_6" function="internal">
        <lane id=":1459264869_6_0" index="0" speed="13.89" length="7.03" shape="2627.91,1631.24 2627.42,1630.84 2627.03,1628.23 2628.28,1624.68"/>
    </edge>
    <edge id=":1459264869_2" function="internal">
        <lane id=":1459264869_2_0" index="0" disallow="tram rail_urban rail rail_electric ship" speed="13.89" length="5.61" shape="2631.21,1626.20 2630.66,1627.75 2630.84,1628.90 2631.73,1629.63 2633.35,1629.95"/>
    </edge>
    <edge id=":1459264869_3" function="internal">
        <lane id=":1459264869_3_0" index="0" disallow="tram rail_urban rail rail_electric ship" speed="13.89" length="10.94" shape="2631.21,1626.20 2629.41,1629.12 2627.46,1631.19 2625.38,1632.40 2623.15,1632.75"/>
    </edge>
    <edge id=":1459264869_4" function="internal">
        <lane id=":1459264869_4_0" index="0" disallow="tram rail_urban rail rail_electric ship" speed="13.89" length="7.23" shape="2623.26,1629.45 2624.52,1629.18 2625.77,1628.30 2627.02,1626.80 2628.28,1624.68"/>
    </edge>
    <edge id=":1459264869_5" function="internal">
        <lane id=":1459264869_5_0" index="0" disallow="tram rail_urban rail rail_electric ship" speed="13.89" length="10.10" shape="2623.26,1629.45 2626.24,1629.56 2628.31,1629.65 2630.37,1629.77 2633.35,1629.95"/>
    </edge>
    <edge id=":1505489061_0" function="internal">
        <lane id=":1505489061_0_0" index="0" disallow="tram rail_urban rail rail_electric ship" speed="13.89" length="2.36" shape="670.87,2004.13 669.01,2002.68"/>
    </edge>
    <edge id=":1505489061_1" function="internal">
        <lane id=":1505489061_1_0" index="0" disallow="tram rail_urban rail rail_electric ship" speed="13.89" length="0.77" shape="671.61,2000.65 672.22,2001.12"/>
    </edge>
    <edge id=":1507762172_0" function="internal">
        <lane id=":1507762172_0_0" index="0" disallow="tram rail_urban rail rail_electric ship" speed="13.89" length="0.62" shape="1281.55,1055.49 1281.43,1056.16"/>
        <lane id=":1507762172_0_1" index="1" disallow="tram rail_urban rail rail_electric ship" speed="13.89" length="0.62" shape="1278.27,1055.13 1278.16,1055.68"/>
    </edge>
    <edge id=":1507762172_2" function="internal">
        <lane id=":1507762172_2_0" index="0" disallow="tram rail_urban rail rail_electric ship" speed="13.89" length="0.36" shape="1271.68,1054.72 1271.70,1054.42"/>
        <lane id=":1507762172_2_1" index="1" disallow="tram rail_urban rail rail_electric ship" speed="13.89" length="0.36" shape="1274.94,1055.20 1274.98,1054.78"/>
    </edge>
    <edge id=":1507762191_0" function="internal">
        <lane id=":1507762191_0_0" index="0" disallow="tram rail_urban rail rail_electric ship" speed="13.89" length="2.73" shape="1148.59,1099.75 1145.64,1099.50"/>
        <lane id=":1507762191_0_1" index="1" disallow="tram rail_urban rail rail_electric ship" speed="13.89" length="2.73" shape="1148.59,1099.75 1147.87,1097.07"/>
        <lane id=":1507762191_0_2" index="2" disallow="tram rail_urban rail rail_electric ship" speed="13.89" length="2.73" shape="1150.48,1097.05 1150.10,1094.64"/>
    </edge>
    <edge id=":1508593696_0" function="internal">
        <lane id=":1508593696_0_0" index="0" disallow="tram rail_urban rail rail_electric ship" speed="13.89" length="9.93" shape="2802.63,1898.38 2800.02,1907.96"/>
    </edge>
    <edge id=":1508593696_1" function="internal">
        <lane id=":1508593696_1_0" index="0" disallow="tram rail_urban rail rail_electric ship" speed="13.89" length="5.37" shape="2802.63,1898.38 2801.62,1900.95 2799.95,1902.61 2799.70,1902.69"/>
    </edge>
    <edge id=":1508593696_6" function="internal">
        <lane id=":1508593696_6_0" index="0" speed="13.89" length="5.21" shape="2799.70,1902.69 2797.61,1903.37 2794.60,1903.22"/>
    </edge>
    <edge id=":1508593696_2" function="internal">
        <lane id=":1508593696_2_0" index="0" disallow="tram rail_urban rail rail_electric ship" speed="13.89" length="5.44" shape="2795.18,1899.98 2796.78,1900.07 2798.02,1899.71 2798.90,1898.91 2799.41,1897.66"/>
    </edge>
    <edge id=":1508593696_3" function="internal">
        <lane id=":1508593696_3_0" index="0" disallow="tram rail_urban rail rail_electric ship" speed="13.89" length="11.00" shape="2795.18,1899.98 2798.10,1900.94 2799.88,1902.59 2800.52,1904.93 2800.02,1907.96"/>
    </edge>
    <edge id=":1508593696_4" function="internal">
        <lane id=":1508593696_4_0" index="0" disallow="tram rail_urban rail rail_electric ship" speed="13.89" length="5.16" shape="2796.88,1906.97 2797.11,1905.55 2796.81,1904.45 2795.97,1903.68 2794.60,1903.22"/>
    </edge>
    <edge id=":1508593696_5" function="internal">
        <lane id=":1508593696_5_0" index="0" disallow="tram rail_urban rail rail_electric ship" speed="13.89" length="9.66" shape="2796.88,1906.97 2799.41,1897.66"/>
    </edge>
    <edge id=":1516302022_0" function="internal">
        <lane id=":1516302022_0_0" index="0" disallow="tram rail_urban rail rail_electric ship" speed="13.89" length="5.02" shape="3341.99,1337.37 3340.63,1337.13 3339.53,1337.39 3338.68,1338.14 3338.09,1339.39"/>
    </edge>
    <edge id=":1516302022_1" function="internal">
        <lane id=":1516302022_1_0" index="0" disallow="tram rail_urban rail rail_electric ship" speed="13.89" length="10.02" shape="3341.99,1337.37 3339.45,1336.18 3337.79,1334.52 3336.98,1332.39 3337.03,1329.79"/>
    </edge>
    <edge id=":1516302022_2" function="internal">
        <lane id=":1516302022_2_0" index="0" disallow="tram rail_urban rail rail_electric ship" speed="13.89" length="5.24" shape="3340.28,1330.35 3340.27,1331.66 3340.72,1332.74 3341.63,1333.60 3343.00,1334.23"/>
    </edge>
    <edge id=":1516302022_3" function="internal">
        <lane id=":1516302022_3_0" index="0" disallow="tram rail_urban rail rail_electric ship" speed="13.89" length="9.30" shape="3340.28,1330.35 3338.09,1339.39"/>
    </edge>
    <edge id=":1516302022_4" function="internal">
        <lane id=":1516302022_4_0" index="0" disallow="tram rail_urban rail rail_electric ship" speed="13.89" length="8.87" shape="3334.94,1338.42 3337.03,1329.79"/>
    </edge>
    <edge id=":1516302022_5" function="internal">
        <lane id=":1516302022_5_0" index="0" disallow="tram rail_urban rail rail_electric ship" speed="13.89" length="10.39" shape="3334.94,1338.42 3336.16,1335.84 3337.91,1334.28 3340.19,1333.74 3343.00,1334.23"/>
    </edge>
    <edge id=":1516302027_0" function="internal">
        <lane id=":1516302027_0_0" index="0" disallow="tram rail_urban rail rail_electric ship" speed="15.28" length="5.01" shape="3436.42,1366.89 3435.07,1366.67 3433.97,1366.93 3433.13,1367.69 3432.55,1368.93"/>
    </edge>
    <edge id=":1516302027_1" function="internal">
        <lane id=":1516302027_1_0" index="0" disallow="tram rail_urban rail rail_electric ship" speed="13.89" length="9.51" shape="3436.42,1366.89 3427.35,1364.05"/>
    </edge>
    <edge id=":1516302027_2" function="internal">
        <lane id=":1516302027_2_0" index="0" disallow="tram rail_urban rail rail_electric ship" speed="13.89" length="9.52" shape="3428.33,1360.90 3437.42,1363.74"/>
    </edge>
    <edge id=":1516302027_3" function="internal">
        <lane id=":1516302027_3_0" index="0" disallow="tram rail_urban rail rail_electric ship" speed="15.28" length="5.28" shape="3428.33,1360.90 3430.88,1362.11 3432.43,1363.85 3432.46,1363.97"/>
    </edge>
    <edge id=":1516302027_6" function="internal">
        <lane id=":1516302027_6_0" index="0" speed="15.28" length="5.06" shape="3432.46,1363.97 3432.98,1366.13 3432.55,1368.93"/>
    </edge>
    <edge id=":1516302027_4" function="internal">
        <lane id=":1516302027_4_0" index="0" disallow="tram rail_urban rail rail_electric ship" speed="15.28" length="5.03" shape="3429.39,1367.97 3429.60,1366.60 3429.34,1365.49 3428.59,1364.64 3427.35,1364.05"/>
    </edge>
    <edge id=":1516302027_5" function="internal">
        <lane id=":1516302027_5_0" index="0" disallow="tram rail_urban rail rail_electric ship" speed="15.28" length="10.37" shape="3429.39,1367.97 3430.59,1365.40 3432.33,1363.83 3434.61,1363.28 3437.42,1363.74"/>
    </edge>
    <edge id=":1516302030_0" function="internal">
        <lane id=":1516302030_0_0" index="0" disallow="tram rail_urban rail rail_electric bicycle pedestrian ship" speed="25.00" length="4.17" shape="3620.86,1396.32 3620.45,1395.33 3619.87,1394.50 3619.12,1393.81 3618.20,1393.27"/>
    </edge>
    <edge id=":1516302030_1" function="internal">
        <lane id=":1516302030_1_0" index="0" disallow="tram rail_urban rail rail_electric bicycle pedestrian ship" speed="27.78" length="7.87" shape="3626.75,1393.56 3619.58,1390.27"/>
        <lane id=":1516302030_1_1" index="1" disallow="tram rail_urban rail rail_electric bicycle pedestrian ship" speed="27.78" length="7.87" shape="3628.10,1390.55 3620.97,1387.28"/>
    </edge>
    <edge id=":1516302035_0" function="internal">
        <lane id=":1516302035_0_0" index="0" disallow="tram rail_urban rail rail_electric bicycle pedestrian ship" speed="25.00" length="3.94" shape="3646.91,1406.12 3642.98,1405.89"/>
    </edge>
    <edge id=":1516302035_1" function="internal">
        <lane id=":1516302035_1_0" index="0" disallow="tram rail_urban rail rail_electric bicycle pedestrian ship" speed="27.78" length="4.15" shape="3648.25,1403.10 3644.44,1401.45"/>
        <lane id=":1516302035_1_1" index="1" disallow="tram rail_urban rail rail_electric bicycle pedestrian ship" speed="27.78" length="4.15" shape="3649.60,1400.09 3645.79,1398.44"/>
    </edge>
    <edge id=":1516302037_0" function="internal">
        <lane id=":1516302037_0_0" index="0" disallow="tram rail_urban rail rail_electric ship" speed="18.05" length="4.22" shape="3629.68,1410.05 3628.69,1410.47 3627.86,1411.07 3627.19,1411.85 3626.68,1412.81"/>
    </edge>
    <edge id=":1516302037_1" function="internal">
        <lane id=":1516302037_1_0" index="0" disallow="tram rail_urban rail rail_electric bicycle pedestrian ship" speed="22.22" length="7.31" shape="3629.68,1410.05 3627.76,1410.34 3626.19,1409.91 3624.98,1408.76 3624.11,1406.89"/>
    </edge>
    <edge id=":1516302037_2" function="internal">
        <lane id=":1516302037_2_0" index="0" disallow="tram rail_urban rail rail_electric bicycle pedestrian ship" speed="18.05" length="4.70" shape="3623.62,1411.57 3624.11,1406.89"/>
    </edge>
    <edge id=":1540767902_0" function="internal">
        <lane id=":1540767902_0_0" index="0" disallow="tram rail_urban rail rail_electric ship" speed="13.89" length="3.82" shape="734.38,1157.66 731.31,1161.05"/>
        <lane id=":1540767902_0_1" index="1" disallow="tram rail_urban rail rail_electric ship" speed="13.89" length="3.82" shape="734.38,1157.66 731.30,1157.75"/>
    </edge>
    <edge id=":1540767902_2" function="internal">
        <lane id=":1540767902_2_0" index="0" disallow="tram rail_urban rail rail_electric ship" speed="13.89" length="2.78" shape="731.24,1147.85 733.87,1147.78"/>
        <lane id=":1540767902_2_1" index="1" disallow="tram rail_urban rail rail_electric ship" speed="13.89" length="2.78" shape="731.26,1151.15 734.04,1151.07"/>
        <lane id=":1540767902_2_2" index="2" disallow="tram rail_urban rail rail_electric ship" speed="13.89" length="2.78" shape="731.28,1154.45 734.21,1154.37"/>
    </edge>
    <edge id=":1620786348_0" function="internal">
        <lane id=":1620786348_0_0" index="0" disallow="tram rail_urban rail rail_electric ship" speed="13.89" length="9.60" shape="2508.47,1201.47 2499.17,1199.10"/>
    </edge>
    <edge id=":1620786348_1" function="internal">
        <lane id=":1620786348_1_0" index="0" disallow="tram rail_urban rail rail_electric ship" speed="13.89" length="10.23" shape="2508.47,1201.47 2505.74,1200.86 2503.84,1199.52 2502.79,1197.45 2502.57,1194.66"/>
    </edge>
    <edge id=":1620786348_2" function="internal">
        <lane id=":1620786348_2_0" index="0" disallow="tram rail_urban rail rail_electric ship" speed="13.89" length="4.98" shape="2505.86,1194.87 2505.97,1196.23 2506.48,1197.23 2507.40,1197.88 2508.73,1198.18"/>
    </edge>
    <edge id=":1620786348_3" function="internal">
        <lane id=":1620786348_3_0" index="0" disallow="tram rail_urban rail rail_electric ship" speed="13.89" length="3.07" shape="2505.86,1194.87 2505.33,1196.90 2504.67,1197.61"/>
    </edge>
    <edge id=":1620786348_4" function="internal">
        <lane id=":1620786348_4_0" index="0" speed="13.89" length="5.92" shape="2504.67,1197.61 2504.04,1198.28 2501.98,1199.01 2499.17,1199.10"/>
    </edge>
    <edge id=":1620786356_0" function="internal">
        <lane id=":1620786356_0_0" index="0" disallow="tram rail_urban rail rail_electric ship" speed="13.89" length="5.04" shape="2303.99,1185.22 2302.61,1185.32 2301.60,1185.85 2300.98,1186.79 2300.73,1188.16"/>
    </edge>
    <edge id=":1620786356_1" function="internal">
        <lane id=":1620786356_1_0" index="0" disallow="tram rail_urban rail rail_electric ship" speed="13.89" length="7.88" shape="2303.99,1185.22 2301.18,1184.84 2299.21,1184.13 2298.06,1183.10 2297.73,1181.73"/>
    </edge>
    <edge id=":1620786356_2" function="internal">
        <lane id=":1620786356_2_0" index="0" disallow="tram rail_urban rail rail_electric ship" speed="13.89" length="6.24" shape="2301.03,1181.93 2300.73,1188.16"/>
    </edge>
    <edge id=":1620786356_3" function="internal">
        <lane id=":1620786356_3_0" index="0" disallow="tram rail_urban rail rail_electric ship" speed="13.89" length="6.31" shape="2297.43,1188.03 2297.73,1181.73"/>
    </edge>
    <edge id=":1639935423_0" function="internal">
        <lane id=":1639935423_0_0" index="0" disallow="tram rail_urban rail rail_electric ship" speed="13.89" length="5.13" shape="2452.93,885.89 2451.55,885.53 2450.43,885.72 2449.56,886.45 2448.95,887.74"/>
    </edge>
    <edge id=":1639935423_1" function="internal">
        <lane id=":1639935423_1_0" index="0" disallow="tram rail_urban rail rail_electric ship" speed="13.89" length="10.44" shape="2452.93,885.89 2450.38,884.40 2448.84,882.52 2448.30,880.24 2448.78,877.57"/>
    </edge>
    <edge id=":1639935423_2" function="internal">
        <lane id=":1639935423_2_0" index="0" disallow="tram rail_urban rail rail_electric ship" speed="13.89" length="5.40" shape="2451.90,878.63 2451.68,879.96 2452.00,881.10 2452.84,882.07 2454.22,882.86"/>
    </edge>
    <edge id=":1639935423_3" function="internal">
        <lane id=":1639935423_3_0" index="0" disallow="tram rail_urban rail rail_electric ship" speed="13.89" length="9.57" shape="2451.90,878.63 2448.95,887.74"/>
    </edge>
    <edge id=":1639935423_4" function="internal">
        <lane id=":1639935423_4_0" index="0" disallow="tram rail_urban rail rail_electric ship" speed="13.89" length="9.67" shape="2445.80,886.77 2448.78,877.57"/>
    </edge>
    <edge id=":1639935423_5" function="internal">
        <lane id=":1639935423_5_0" index="0" disallow="tram rail_urban rail rail_electric ship" speed="13.89" length="5.43" shape="2445.80,886.77 2447.09,884.04 2448.93,882.48"/>
    </edge>
    <edge id=":1639935423_6" function="internal">
        <lane id=":1639935423_6_0" index="0" speed="13.89" length="5.43" shape="2448.93,882.48 2451.30,882.08 2454.22,882.86"/>
    </edge>
    <edge id=":1639935440_0" function="internal">
        <lane id=":1639935440_0_0" index="0" disallow="tram rail_urban rail rail_electric ship" speed="13.89" length="9.83" shape="2431.93,989.32 2422.15,988.37"/>
    </edge>
    <edge id=":1639935440_1" function="internal">
        <lane id=":1639935440_1_0" index="0" disallow="tram rail_urban rail rail_electric ship" speed="13.89" length="5.56" shape="2431.93,989.32 2428.99,988.70 2427.05,987.28 2426.99,987.14"/>
    </edge>
    <edge id=":1639935440_6" function="internal">
        <lane id=":1639935440_6_0" index="0" speed="13.89" length="5.24" shape="2426.99,987.14 2426.11,985.07 2426.15,982.07"/>
    </edge>
    <edge id=":1639935440_2" function="internal">
        <lane id=":1639935440_2_0" index="0" disallow="tram rail_urban rail rail_electric ship" speed="13.89" length="5.11" shape="2429.41,982.60 2429.39,984.02 2429.84,985.06 2430.76,985.73 2432.15,986.03"/>
    </edge>
    <edge id=":1639935440_3" function="internal">
        <lane id=":1639935440_3_0" index="0" disallow="tram rail_urban rail rail_electric ship" speed="13.89" length="10.51" shape="2429.41,982.60 2428.56,985.43 2427.07,987.33 2424.93,988.32 2422.15,988.37"/>
    </edge>
    <edge id=":1639935440_4" function="internal">
        <lane id=":1639935440_4_0" index="0" disallow="tram rail_urban rail rail_electric ship" speed="13.89" length="5.30" shape="2422.58,985.10 2423.94,985.06 2424.99,984.54 2425.72,983.55 2426.15,982.07"/>
    </edge>
    <edge id=":1639935440_5" function="internal">
        <lane id=":1639935440_5_0" index="0" disallow="tram rail_urban rail rail_electric ship" speed="13.89" length="9.61" shape="2422.58,985.10 2432.15,986.03"/>
    </edge>
    <edge id=":1695144073_0" function="internal">