[General]
sim-time-limit = 3600s
network = artery.inet.World
*.withStoryboard = true
*.storyboard.python = "demo"

*.traci.core.version = -1
*.traci.launcher.typename = "PosixLauncher"
*.traci.launcher.sumocfg = "erlangen.sumo.cfg"

*.node[*].wlan[*].typename = "VanetNic"
*.node[*].wlan[*].radio.channelNumber = 180
*.node[*].wlan[*].radio.carrierFrequency = 5.9 GHz
*.node[*].wlan[*].radio.transmitter.power = 200 mW

*.node[*].middleware.updateInterval = 0.1s
*.node[*].middleware.datetime = "2013-06-01 12:35:00"
*.node[*].middleware.services = xmldoc("services.xml")

[Config fingerprint_full]
*.traci.core.version = 16
fingerprint = f1c2-3069/tplx, 9b75-265d/szv

[Config fingerprint_logic]
*.traci.core.version = 16
fingerprint = 8d88-5afd/tpe

[Config veins]
network = artery.veins.World
*.playgroundSizeX = 4000m
*.playgroundSizeY = 4000m
*.playgroundSizeZ = 50m

*.connectionManager.maxInterfDist = 1500m
*.connectionManager.sendDirect = true
*.connectionManager.coreDebug = false

*.node[*].nicType = "Nic80211pItsG5"
*.node[*].nic.macItsG5.txPower = 126mW
*.node[*].nic.phy80211p.sensitivity = -89dBm
*.node[*].nic.phy80211p.usePropagationDelay = true
*.node[*].nic.phy80211p.useThermalNoise = true
*.node[*].nic.phy80211p.thermalNoise = -110dBm
*.node[*].nic.phy80211p.decider = xmldoc("config.xml")
*.node[*].nic.phy80211p.analogueModels = xmldoc("config.xml")

*.node[*].appl.middleware.updateInterval = 0.1s
*.node[*].appl.middleware.datetime = "2013-06-01 12:35:00"
*.node[*].appl.middleware.services = xmldoc("services.xml")
