[General]
sim-time-limit = 3600s
network = artery.inet.World
*.withStoryboard = true
*.storyboard.python = "demo"

*.traci.core.version = -1
*.traci.launcher.typename = "PosixLauncher"
*.traci.launcher.sumocfg = "erlangen.sumo.cfg"

*.node[*].wlan[*].typename = "VanetNic"
*.node[*].wlan[*].radio.channelNumber = 180
*.node[*].wlan[*].radio.carrierFrequency = 5.9 GHz
*.node[*].wlan[*].radio.transmitter.power = 200 mW

*.node[*].middleware.updateInterval = 0.1s
*.node[*].middleware.datetime = "2013-06-01 12:35:00"
*.node[*].middleware.services = xmldoc("services.xml")

[Config fingerprint_full]
*.traci.core.version = 16
fingerprint = 790b-eaf8/tplx, 5cb2-e19a/szv

[Config fingerprint_logic]
*.traci.core.version = 16
fingerprint = 8d88-5afd/tpe
