<?xml version="1.0" encoding="UTF-8"?>

<!-- generated on Sun Jun 23 21:22:20 2019 by Eclipse SUMO netgenerate Version 1.2.0
<configuration xmlns:xsi="http://www.w3.org/2001/XMLSchema-instance" xsi:noNamespaceSchemaLocation="http://sumo.dlr.de/xsd/netgenerateConfiguration.xsd">

    <grid_network>
        <grid value="true"/>
        <grid.number value="6"/>
        <grid.length value="120"/>
    </grid_network>

    <output>
        <output-file value="grid_scenario_traffic_light_5x5.net.xml"/>
    </output>

    <building_defaults>
        <default.lanenumber value="2"/>
        <default.lanewidth value="3.5"/>
        <default.speed value="20"/>
        <default-junction-type value="traffic_light_unregulated"/>
    </building_defaults>

    <junctions>
        <no-internal-links value="false"/>
        <no-turnarounds value="true"/>
    </junctions>

</configuration>
-->

<net version="1.1" junctionCornerDetail="5" limitTurnSpeed="5.50" xmlns:xsi="http://www.w3.org/2001/XMLSchema-instance" xsi:noNamespaceSchemaLocation="http://sumo.dlr.de/xsd/net_file.xsd">

    <location netOffset="0.00,0.00" convBoundary="0.00,0.00,600.00,600.00" origBoundary="0.00,0.00,600.00,600.00" projParameter="+proj=tmerc +ellps=WGS84 +datum=WGS84 +units=m +no_defs"/>

    <edge id=":A0_0" function="internal">
        <lane id=":A0_0_0" index="0" speed="9.37" length="19.76" width="3.50" shape="-5.25,7.00 -4.48,1.64 -2.19,-2.19 1.64,-4.48 7.00,-5.25"/>
    </edge>
    <edge id=":A0_1" function="internal">
        <lane id=":A0_1_0" index="0" speed="8.01" length="14.11" width="3.50" shape="-1.75,7.00 -1.20,3.17 0.44,0.44 3.17,-1.20 7.00,-1.75"/>
    </edge>
    <edge id=":A0_2" function="internal">
        <lane id=":A0_2_0" index="0" speed="4.08" length="2.82" width="3.50" shape="7.00,5.25 6.23,5.36 5.69,5.69 5.36,6.23 5.25,7.00"/>
    </edge>
    <edge id=":A0_3" function="internal">
        <lane id=":A0_3_0" index="0" speed="6.36" length="8.47" width="3.50" shape="7.00,1.75 4.70,2.08 3.06,3.06 2.08,4.70 1.75,7.00"/>
    </edge>
    <edge id=":A1_0" function="internal">
        <lane id=":A1_0_0" index="0" speed="20.00" length="22.00" width="3.50" shape="-5.25,131.00 -5.25,109.00"/>
        <lane id=":A1_0_1" index="1" speed="20.00" length="22.00" width="3.50" shape="-1.75,131.00 -1.75,109.00"/>
    </edge>
    <edge id=":A1_2" function="internal">
        <lane id=":A1_2_0" index="0" speed="9.31" length="19.47" width="3.50" shape="-1.75,131.00 -0.60,126.47 2.37,122.37 6.47,119.40 11.00,118.25"/>
    </edge>
    <edge id=":A1_3" function="internal">
        <lane id=":A1_3_0" index="0" speed="6.62" length="9.27" width="3.50" shape="11.00,125.25 8.48,125.61 6.69,126.69 5.61,128.48 5.25,131.00"/>
    </edge>
    <edge id=":A1_4" function="internal">
        <lane id=":A1_4_0" index="0" speed="8.22" length="14.92" width="3.50" shape="11.00,121.75 6.95,122.33 4.06,124.06 2.33,126.95 1.75,131.00"/>
    </edge>
    <edge id=":A1_5" function="internal">
        <lane id=":A1_5_0" index="0" speed="9.31" length="19.47" width="3.50" shape="11.00,121.75 6.47,120.60 2.37,117.63 -0.60,113.53 -1.75,109.00"/>
    </edge>
    <edge id=":A1_6" function="internal">
        <lane id=":A1_6_0" index="0" speed="6.62" length="9.27" width="3.50" shape="5.25,109.00 5.61,111.52 6.69,113.31 8.48,114.39 11.00,114.75"/>
    </edge>
    <edge id=":A1_7" function="internal">
        <lane id=":A1_7_0" index="0" speed="20.00" length="22.00" width="3.50" shape="5.25,109.00 5.25,131.00"/>
        <lane id=":A1_7_1" index="1" speed="20.00" length="22.00" width="3.50" shape="1.75,109.00 1.75,131.00"/>
    </edge>
    <edge id=":A2_0" function="internal">
        <lane id=":A2_0_0" index="0" speed="20.00" length="22.00" width="3.50" shape="-5.25,251.00 -5.25,229.00"/>
        <lane id=":A2_0_1" index="1" speed="20.00" length="22.00" width="3.50" shape="-1.75,251.00 -1.75,229.00"/>
    </edge>
    <edge id=":A2_2" function="internal">
        <lane id=":A2_2_0" index="0" speed="9.31" length="19.47" width="3.50" shape="-1.75,251.00 -0.60,246.47 2.37,242.37 6.47,239.40 11.00,238.25"/>
    </edge>
    <edge id=":A2_3" function="internal">
        <lane id=":A2_3_0" index="0" speed="6.62" length="9.27" width="3.50" shape="11.00,245.25 8.48,245.61 6.69,246.69 5.61,248.48 5.25,251.00"/>
    </edge>
    <edge id=":A2_4" function="internal">
        <lane id=":A2_4_0" index="0" speed="8.22" length="14.92" width="3.50" shape="11.00,241.75 6.95,242.33 4.06,244.06 2.33,246.95 1.75,251.00"/>
    </edge>
    <edge id=":A2_5" function="internal">
        <lane id=":A2_5_0" index="0" speed="9.31" length="19.47" width="3.50" shape="11.00,241.75 6.47,240.60 2.37,237.63 -0.60,233.53 -1.75,229.00"/>
    </edge>
    <edge id=":A2_6" function="internal">
        <lane id=":A2_6_0" index="0" speed="6.62" length="9.27" width="3.50" shape="5.25,229.00 5.61,231.52 6.69,233.31 8.48,234.39 11.00,234.75"/>
    </edge>
    <edge id=":A2_7" function="internal">
        <lane id=":A2_7_0" index="0" speed="20.00" length="22.00" width="3.50" shape="5.25,229.00 5.25,251.00"/>
        <lane id=":A2_7_1" index="1" speed="20.00" length="22.00" width="3.50" shape="1.75,229.00 1.75,251.00"/>
    </edge>
    <edge id=":A3_0" function="internal">
        <lane id=":A3_0_0" index="0" speed="20.00" length="22.00" width="3.50" shape="-5.25,371.00 -5.25,349.00"/>
        <lane id=":A3_0_1" index="1" speed="20.00" length="22.00" width="3.50" shape="-1.75,371.00 -1.75,349.00"/>
    </edge>
    <edge id=":A3_2" function="internal">
        <lane id=":A3_2_0" index="0" speed="9.31" length="19.47" width="3.50" shape="-1.75,371.00 -0.60,366.47 2.37,362.37 6.47,359.40 11.00,358.25"/>
    </edge>
    <edge id=":A3_3" function="internal">
        <lane id=":A3_3_0" index="0" speed="6.62" length="9.27" width="3.50" shape="11.00,365.25 8.48,365.61 6.69,366.69 5.61,368.48 5.25,371.00"/>
    </edge>
    <edge id=":A3_4" function="internal">
        <lane id=":A3_4_0" index="0" speed="8.22" length="14.92" width="3.50" shape="11.00,361.75 6.95,362.33 4.06,364.06 2.33,366.95 1.75,371.00"/>
    </edge>
    <edge id=":A3_5" function="internal">
        <lane id=":A3_5_0" index="0" speed="9.31" length="19.47" width="3.50" shape="11.00,361.75 6.47,360.60 2.37,357.63 -0.60,353.53 -1.75,349.00"/>
    </edge>
    <edge id=":A3_6" function="internal">
        <lane id=":A3_6_0" index="0" speed="6.62" length="9.27" width="3.50" shape="5.25,349.00 5.61,351.52 6.69,353.31 8.48,354.39 11.00,354.75"/>
    </edge>
    <edge id=":A3_7" function="internal">
        <lane id=":A3_7_0" index="0" speed="20.00" length="22.00" width="3.50" shape="5.25,349.00 5.25,371.00"/>
        <lane id=":A3_7_1" index="1" speed="20.00" length="22.00" width="3.50" shape="1.75,349.00 1.75,371.00"/>
    </edge>
    <edge id=":A4_0" function="internal">
        <lane id=":A4_0_0" index="0" speed="20.00" length="22.00" width="3.50" shape="-5.25,491.00 -5.25,469.00"/>
        <lane id=":A4_0_1" index="1" speed="20.00" length="22.00" width="3.50" shape="-1.75,491.00 -1.75,469.00"/>
    </edge>
    <edge id=":A4_2" function="internal">
        <lane id=":A4_2_0" index="0" speed="9.31" length="19.47" width="3.50" shape="-1.75,491.00 -0.60,486.47 2.37,482.37 6.47,479.40 11.00,478.25"/>
    </edge>
    <edge id=":A4_3" function="internal">
        <lane id=":A4_3_0" index="0" speed="6.62" length="9.27" width="3.50" shape="11.00,485.25 8.48,485.61 6.69,486.69 5.61,488.48 5.25,491.00"/>
    </edge>
    <edge id=":A4_4" function="internal">
        <lane id=":A4_4_0" index="0" speed="8.22" length="14.92" width="3.50" shape="11.00,481.75 6.95,482.33 4.06,484.06 2.33,486.95 1.75,491.00"/>
    </edge>
    <edge id=":A4_5" function="internal">
        <lane id=":A4_5_0" index="0" speed="9.31" length="19.47" width="3.50" shape="11.00,481.75 6.47,480.60 2.37,477.63 -0.60,473.53 -1.75,469.00"/>
    </edge>
    <edge id=":A4_6" function="internal">
        <lane id=":A4_6_0" index="0" speed="6.62" length="9.27" width="3.50" shape="5.25,469.00 5.61,471.52 6.69,473.31 8.48,474.39 11.00,474.75"/>
    </edge>
    <edge id=":A4_7" function="internal">
        <lane id=":A4_7_0" index="0" speed="20.00" length="22.00" width="3.50" shape="5.25,469.00 5.25,491.00"/>
        <lane id=":A4_7_1" index="1" speed="20.00" length="22.00" width="3.50" shape="1.75,469.00 1.75,491.00"/>
    </edge>
    <edge id=":A5_0" function="internal">
        <lane id=":A5_0_0" index="0" speed="9.37" length="19.76" width="3.50" shape="7.00,605.25 1.64,604.48 -2.19,602.19 -4.48,598.36 -5.25,593.00"/>
    </edge>
    <edge id=":A5_1" function="internal">
        <lane id=":A5_1_0" index="0" speed="8.01" length="14.11" width="3.50" shape="7.00,601.75 3.17,601.20 0.44,599.56 -1.20,596.83 -1.75,593.00"/>
    </edge>
    <edge id=":A5_2" function="internal">
        <lane id=":A5_2_0" index="0" speed="4.08" length="2.82" width="3.50" shape="5.25,593.00 5.36,593.77 5.69,594.31 6.23,594.64 7.00,594.75"/>
    </edge>
    <edge id=":A5_3" function="internal">
        <lane id=":A5_3_0" index="0" speed="6.36" length="8.47" width="3.50" shape="1.75,593.00 2.08,595.30 3.06,596.94 4.70,597.92 7.00,598.25"/>
    </edge>
    <edge id=":B0_0" function="internal">
        <lane id=":B0_0_0" index="0" speed="6.62" length="9.27" width="3.50" shape="114.75,11.00 114.39,8.48 113.31,6.69 111.52,5.61 109.00,5.25"/>
    </edge>
    <edge id=":B0_1" function="internal">
        <lane id=":B0_1_0" index="0" speed="8.22" length="14.92" width="3.50" shape="118.25,11.00 117.67,6.95 115.94,4.06 113.05,2.33 109.00,1.75"/>
    </edge>
    <edge id=":B0_2" function="internal">
        <lane id=":B0_2_0" index="0" speed="9.31" length="19.47" width="3.50" shape="118.25,11.00 119.40,6.47 122.37,2.37 126.47,-0.60 131.00,-1.75"/>
    </edge>
    <edge id=":B0_3" function="internal">
        <lane id=":B0_3_0" index="0" speed="6.62" length="9.27" width="3.50" shape="131.00,5.25 128.48,5.61 126.69,6.69 125.61,8.48 125.25,11.00"/>
    </edge>
    <edge id=":B0_4" function="internal">
        <lane id=":B0_4_0" index="0" speed="20.00" length="22.00" width="3.50" shape="131.00,5.25 109.00,5.25"/>
        <lane id=":B0_4_1" index="1" speed="20.00" length="22.00" width="3.50" shape="131.00,1.75 109.00,1.75"/>
    </edge>
    <edge id=":B0_6" function="internal">
        <lane id=":B0_6_0" index="0" speed="20.00" length="22.00" width="3.50" shape="109.00,-5.25 131.00,-5.25"/>
        <lane id=":B0_6_1" index="1" speed="20.00" length="22.00" width="3.50" shape="109.00,-1.75 131.00,-1.75"/>
    </edge>
    <edge id=":B0_8" function="internal">
        <lane id=":B0_8_0" index="0" speed="9.31" length="19.47" width="3.50" shape="109.00,-1.75 113.53,-0.60 117.63,2.37 120.60,6.47 121.75,11.00"/>
    </edge>
    <edge id=":B1_0" function="internal">
        <lane id=":B1_0_0" index="0" speed="6.62" length="9.27" width="3.50" shape="114.75,131.00 114.39,128.48 113.31,126.69 111.52,125.61 109.00,125.25"/>
    </edge>
    <edge id=":B1_1" function="internal">
        <lane id=":B1_1_0" index="0" speed="20.00" length="22.00" width="3.50" shape="114.75,131.00 114.75,109.00"/>
        <lane id=":B1_1_1" index="1" speed="20.00" length="22.00" width="3.50" shape="118.25,131.00 118.25,109.00"/>
    </edge>
    <edge id=":B1_3" function="internal">
        <lane id=":B1_3_0" index="0" speed="9.31" length="19.47" width="3.50" shape="118.25,131.00 119.40,126.47 122.37,122.37 126.47,119.40 131.00,118.25"/>
    </edge>
    <edge id=":B1_4" function="internal">
        <lane id=":B1_4_0" index="0" speed="6.62" length="9.27" width="3.50" shape="131.00,125.25 128.48,125.61 126.69,126.69 125.61,128.48 125.25,131.00"/>
    </edge>
    <edge id=":B1_5" function="internal">
        <lane id=":B1_5_0" index="0" speed="20.00" length="22.00" width="3.50" shape="131.00,125.25 109.00,125.25"/>
        <lane id=":B1_5_1" index="1" speed="20.00" length="22.00" width="3.50" shape="131.00,121.75 109.00,121.75"/>
    </edge>
    <edge id=":B1_7" function="internal">
        <lane id=":B1_7_0" index="0" speed="9.31" length="19.47" width="3.50" shape="131.00,121.75 126.47,120.60 122.37,117.63 119.40,113.53 118.25,109.00"/>
    </edge>
    <edge id=":B1_8" function="internal">
        <lane id=":B1_8_0" index="0" speed="6.62" length="9.27" width="3.50" shape="125.25,109.00 125.61,111.52 126.69,113.31 128.48,114.39 131.00,114.75"/>
    </edge>
    <edge id=":B1_9" function="internal">
        <lane id=":B1_9_0" index="0" speed="20.00" length="22.00" width="3.50" shape="125.25,109.00 125.25,131.00"/>
        <lane id=":B1_9_1" index="1" speed="20.00" length="22.00" width="3.50" shape="121.75,109.00 121.75,131.00"/>
    </edge>
    <edge id=":B1_11" function="internal">
        <lane id=":B1_11_0" index="0" speed="9.31" length="19.47" width="3.50" shape="121.75,109.00 120.60,113.53 117.63,117.63 113.53,120.60 109.00,121.75"/>
    </edge>
    <edge id=":B1_12" function="internal">
        <lane id=":B1_12_0" index="0" speed="6.62" length="9.27" width="3.50" shape="109.00,114.75 111.52,114.39 113.31,113.31 114.39,111.52 114.75,109.00"/>
    </edge>
    <edge id=":B1_13" function="internal">
        <lane id=":B1_13_0" index="0" speed="20.00" length="22.00" width="3.50" shape="109.00,114.75 131.00,114.75"/>
        <lane id=":B1_13_1" index="1" speed="20.00" length="22.00" width="3.50" shape="109.00,118.25 131.00,118.25"/>
    </edge>
    <edge id=":B1_15" function="internal">
        <lane id=":B1_15_0" index="0" speed="9.31" length="19.47" width="3.50" shape="109.00,118.25 113.53,119.40 117.63,122.37 120.60,126.47 121.75,131.00"/>
    </edge>
    <edge id=":B2_0" function="internal">
        <lane id=":B2_0_0" index="0" speed="6.62" length="9.27" width="3.50" shape="114.75,251.00 114.39,248.48 113.31,246.69 111.52,245.61 109.00,245.25"/>
    </edge>
    <edge id=":B2_1" function="internal">
        <lane id=":B2_1_0" index="0" speed="20.00" length="22.00" width="3.50" shape="114.75,251.00 114.75,229.00"/>
        <lane id=":B2_1_1" index="1" speed="20.00" length="22.00" width="3.50" shape="118.25,251.00 118.25,229.00"/>
    </edge>
    <edge id=":B2_3" function="internal">
        <lane id=":B2_3_0" index="0" speed="9.31" length="19.47" width="3.50" shape="118.25,251.00 119.40,246.47 122.37,242.37 126.47,239.40 131.00,238.25"/>
    </edge>
    <edge id=":B2_4" function="internal">
        <lane id=":B2_4_0" index="0" speed="6.62" length="9.27" width="3.50" shape="131.00,245.25 128.48,245.61 126.69,246.69 125.61,248.48 125.25,251.00"/>
    </edge>
    <edge id=":B2_5" function="internal">
        <lane id=":B2_5_0" index="0" speed="20.00" length="22.00" width="3.50" shape="131.00,245.25 109.00,245.25"/>
        <lane id=":B2_5_1" index="1" speed="20.00" length="22.00" width="3.50" shape="131.00,241.75 109.00,241.75"/>
    </edge>
    <edge id=":B2_7" function="internal">
        <lane id=":B2_7_0" index="0" speed="9.31" length="19.47" width="3.50" shape="131.00,241.75 126.47,240.60 122.37,237.63 119.40,233.53 118.25,229.00"/>
    </edge>
    <edge id=":B2_8" function="internal">
        <lane id=":B2_8_0" index="0" speed="6.62" length="9.27" width="3.50" shape="125.25,229.00 125.61,231.52 126.69,233.31 128.48,234.39 131.00,234.75"/>
    </edge>
    <edge id=":B2_9" function="internal">
        <lane id=":B2_9_0" index="0" speed="20.00" length="22.00" width="3.50" shape="125.25,229.00 125.25,251.00"/>
        <lane id=":B2_9_1" index="1" speed="20.00" length="22.00" width="3.50" shape="121.75,229.00 121.75,251.00"/>
    </edge>
    <edge id=":B2_11" function="internal">
        <lane id=":B2_11_0" index="0" speed="9.31" length="19.47" width="3.50" shape="121.75,229.00 120.60,233.53 117.63,237.63 113.53,240.60 109.00,241.75"/>
    </edge>
    <edge id=":B2_12" function="internal">
        <lane id=":B2_12_0" index="0" speed="6.62" length="9.27" width="3.50" shape="109.00,234.75 111.52,234.39 113.31,233.31 114.39,231.52 114.75,229.00"/>
    </edge>
    <edge id=":B2_13" function="internal">
        <lane id=":B2_13_0" index="0" speed="20.00" length="22.00" width="3.50" shape="109.00,234.75 131.00,234.75"/>
        <lane id=":B2_13_1" index="1" speed="20.00" length="22.00" width="3.50" shape="109.00,238.25 131.00,238.25"/>
    </edge>
    <edge id=":B2_15" function="internal">
        <lane id=":B2_15_0" index="0" speed="9.31" length="19.47" width="3.50" shape="109.00,238.25 113.53,239.40 117.63,242.37 120.60,246.47 121.75,251.00"/>
    </edge>
    <edge id=":B3_0" function="internal">
        <lane id=":B3_0_0" index="0" speed="6.62" length="9.27" width="3.50" shape="114.75,371.00 114.39,368.48 113.31,366.69 111.52,365.61 109.00,365.25"/>
    </edge>
    <edge id=":B3_1" function="internal">
        <lane id=":B3_1_0" index="0" speed="20.00" length="22.00" width="3.50" shape="114.75,371.00 114.75,349.00"/>
        <lane id=":B3_1_1" index="1" speed="20.00" length="22.00" width="3.50" shape="118.25,371.00 118.25,349.00"/>
    </edge>
    <edge id=":B3_3" function="internal">
        <lane id=":B3_3_0" index="0" speed="9.31" length="19.47" width="3.50" shape="118.25,371.00 119.40,366.47 122.37,362.37 126.47,359.40 131.00,358.25"/>
    </edge>
    <edge id=":B3_4" function="internal">
        <lane id=":B3_4_0" index="0" speed="6.62" length="9.27" width="3.50" shape="131.00,365.25 128.48,365.61 126.69,366.69 125.61,368.48 125.25,371.00"/>
    </edge>
    <edge id=":B3_5" function="internal">
        <lane id=":B3_5_0" index="0" speed="20.00" length="22.00" width="3.50" shape="131.00,365.25 109.00,365.25"/>
        <lane id=":B3_5_1" index="1" speed="20.00" length="22.00" width="3.50" shape="131.00,361.75 109.00,361.75"/>
    </edge>
    <edge id=":B3_7" function="internal">
        <lane id=":B3_7_0" index="0" speed="9.31" length="19.47" width="3.50" shape="131.00,361.75 126.47,360.60 122.37,357.63 119.40,353.53 118.25,349.00"/>
    </edge>
    <edge id=":B3_8" function="internal">
        <lane id=":B3_8_0" index="0" speed="6.62" length="9.27" width="3.50" shape="125.25,349.00 125.61,351.52 126.69,353.31 128.48,354.39 131.00,354.75"/>
    </edge>
    <edge id=":B3_9" function="internal">
        <lane id=":B3_9_0" index="0" speed="20.00" length="22.00" width="3.50" shape="125.25,349.00 125.25,371.00"/>
        <lane id=":B3_9_1" index="1" speed="20.00" length="22.00" width="3.50" shape="121.75,349.00 121.75,371.00"/>
    </edge>
    <edge id=":B3_11" function="internal">
        <lane id=":B3_11_0" index="0" speed="9.31" length="19.47" width="3.50" shape="121.75,349.00 120.60,353.53 117.63,357.63 113.53,360.60 109.00,361.75"/>
    </edge>
    <edge id=":B3_12" function="internal">
        <lane id=":B3_12_0" index="0" speed="6.62" length="9.27" width="3.50" shape="109.00,354.75 111.52,354.39 113.31,353.31 114.39,351.52 114.75,349.00"/>
    </edge>
    <edge id=":B3_13" function="internal">
        <lane id=":B3_13_0" index="0" speed="20.00" length="22.00" width="3.50" shape="109.00,354.75 131.00,354.75"/>
        <lane id=":B3_13_1" index="1" speed="20.00" length="22.00" width="3.50" shape="109.00,358.25 131.00,358.25"/>
    </edge>
    <edge id=":B3_15" function="internal">
        <lane id=":B3_15_0" index="0" speed="9.31" length="19.47" width="3.50" shape="109.00,358.25 113.53,359.40 117.63,362.37 120.60,366.47 121.75,371.00"/>
    </edge>
    <edge id=":B4_0" function="internal">
        <lane id=":B4_0_0" index="0" speed="6.62" length="9.27" width="3.50" shape="114.75,491.00 114.39,488.48 113.31,486.69 111.52,485.61 109.00,485.25"/>
    </edge>
    <edge id=":B4_1" function="internal">
        <lane id=":B4_1_0" index="0" speed="20.00" length="22.00" width="3.50" shape="114.75,491.00 114.75,469.00"/>
        <lane id=":B4_1_1" index="1" speed="20.00" length="22.00" width="3.50" shape="118.25,491.00 118.25,469.00"/>
    </edge>
    <edge id=":B4_3" function="internal">
        <lane id=":B4_3_0" index="0" speed="9.31" length="19.47" width="3.50" shape="118.25,491.00 119.40,486.47 122.37,482.37 126.47,479.40 131.00,478.25"/>
    </edge>
    <edge id=":B4_4" function="internal">
        <lane id=":B4_4_0" index="0" speed="6.62" length="9.27" width="3.50" shape="131.00,485.25 128.48,485.61 126.69,486.69 125.61,488.48 125.25,491.00"/>
    </edge>
    <edge id=":B4_5" function="internal">
        <lane id=":B4_5_0" index="0" speed="20.00" length="22.00" width="3.50" shape="131.00,485.25 109.00,485.25"/>
        <lane id=":B4_5_1" index="1" speed="20.00" length="22.00" width="3.50" shape="131.00,481.75 109.00,481.75"/>
    </edge>
    <edge id=":B4_7" function="internal">
        <lane id=":B4_7_0" index="0" speed="9.31" length="19.47" width="3.50" shape="131.00,481.75 126.47,480.60 122.37,477.63 119.40,473.53 118.25,469.00"/>
    </edge>
    <edge id=":B4_8" function="internal">
        <lane id=":B4_8_0" index="0" speed="6.62" length="9.27" width="3.50" shape="125.25,469.00 125.61,471.52 126.69,473.31 128.48,474.39 131.00,474.75"/>
    </edge>
    <edge id=":B4_9" function="internal">
        <lane id=":B4_9_0" index="0" speed="20.00" length="22.00" width="3.50" shape="125.25,469.00 125.25,491.00"/>
        <lane id=":B4_9_1" index="1" speed="20.00" length="22.00" width="3.50" shape="121.75,469.00 121.75,491.00"/>
    </edge>
    <edge id=":B4_11" function="internal">
        <lane id=":B4_11_0" index="0" speed="9.31" length="19.47" width="3.50" shape="121.75,469.00 120.60,473.53 117.63,477.63 113.53,480.60 109.00,481.75"/>
    </edge>
    <edge id=":B4_12" function="internal">
        <lane id=":B4_12_0" index="0" speed="6.62" length="9.27" width="3.50" shape="109.00,474.75 111.52,474.39 113.31,473.31 114.39,471.52 114.75,469.00"/>
    </edge>
    <edge id=":B4_13" function="internal">
        <lane id=":B4_13_0" index="0" speed="20.00" length="22.00" width="3.50" shape="109.00,474.75 131.00,474.75"/>
        <lane id=":B4_13_1" index="1" speed="20.00" length="22.00" width="3.50" shape="109.00,478.25 131.00,478.25"/>
    </edge>
    <edge id=":B4_15" function="internal">
        <lane id=":B4_15_0" index="0" speed="9.31" length="19.47" width="3.50" shape="109.00,478.25 113.53,479.40 117.63,482.37 120.60,486.47 121.75,491.00"/>
    </edge>
    <edge id=":B5_0" function="internal">
        <lane id=":B5_0_0" index="0" speed="20.00" length="22.00" width="3.50" shape="131.00,605.25 109.00,605.25"/>
        <lane id=":B5_0_1" index="1" speed="20.00" length="22.00" width="3.50" shape="131.00,601.75 109.00,601.75"/>
    </edge>
    <edge id=":B5_2" function="internal">
        <lane id=":B5_2_0" index="0" speed="9.31" length="19.47" width="3.50" shape="131.00,601.75 126.47,600.60 122.37,597.63 119.40,593.53 118.25,589.00"/>
    </edge>
    <edge id=":B5_3" function="internal">
        <lane id=":B5_3_0" index="0" speed="6.62" length="9.27" width="3.50" shape="125.25,589.00 125.61,591.52 126.69,593.31 128.48,594.39 131.00,594.75"/>
    </edge>
    <edge id=":B5_4" function="internal">
        <lane id=":B5_4_0" index="0" speed="8.22" length="14.92" width="3.50" shape="121.75,589.00 122.33,593.05 124.06,595.94 126.95,597.67 131.00,598.25"/>
    </edge>
    <edge id=":B5_5" function="internal">
        <lane id=":B5_5_0" index="0" speed="9.31" length="19.47" width="3.50" shape="121.75,589.00 120.60,593.53 117.63,597.63 113.53,600.60 109.00,601.75"/>
    </edge>
    <edge id=":B5_6" function="internal">
        <lane id=":B5_6_0" index="0" speed="6.62" length="9.27" width="3.50" shape="109.00,594.75 111.52,594.39 113.31,593.31 114.39,591.52 114.75,589.00"/>
    </edge>
    <edge id=":B5_7" function="internal">
        <lane id=":B5_7_0" index="0" speed="20.00" length="22.00" width="3.50" shape="109.00,594.75 131.00,594.75"/>
        <lane id=":B5_7_1" index="1" speed="20.00" length="22.00" width="3.50" shape="109.00,598.25 131.00,598.25"/>
    </edge>
    <edge id=":C0_0" function="internal">
        <lane id=":C0_0_0" index="0" speed="6.62" length="9.27" width="3.50" shape="234.75,11.00 234.39,8.48 233.31,6.69 231.52,5.61 229.00,5.25"/>
    </edge>
    <edge id=":C0_1" function="internal">
        <lane id=":C0_1_0" index="0" speed="8.22" length="14.92" width="3.50" shape="238.25,11.00 237.67,6.95 235.94,4.06 233.05,2.33 229.00,1.75"/>
    </edge>
    <edge id=":C0_2" function="internal">
        <lane id=":C0_2_0" index="0" speed="9.31" length="19.47" width="3.50" shape="238.25,11.00 239.40,6.47 242.37,2.37 246.47,-0.60 251.00,-1.75"/>
    </edge>
    <edge id=":C0_3" function="internal">
        <lane id=":C0_3_0" index="0" speed="6.62" length="9.27" width="3.50" shape="251.00,5.25 248.48,5.61 246.69,6.69 245.61,8.48 245.25,11.00"/>
    </edge>
    <edge id=":C0_4" function="internal">
        <lane id=":C0_4_0" index="0" speed="20.00" length="22.00" width="3.50" shape="251.00,5.25 229.00,5.25"/>
        <lane id=":C0_4_1" index="1" speed="20.00" length="22.00" width="3.50" shape="251.00,1.75 229.00,1.75"/>
    </edge>
    <edge id=":C0_6" function="internal">
        <lane id=":C0_6_0" index="0" speed="20.00" length="22.00" width="3.50" shape="229.00,-5.25 251.00,-5.25"/>
        <lane id=":C0_6_1" index="1" speed="20.00" length="22.00" width="3.50" shape="229.00,-1.75 251.00,-1.75"/>
    </edge>
    <edge id=":C0_8" function="internal">
        <lane id=":C0_8_0" index="0" speed="9.31" length="19.47" width="3.50" shape="229.00,-1.75 233.53,-0.60 237.63,2.37 240.60,6.47 241.75,11.00"/>
    </edge>
    <edge id=":C1_0" function="internal">
        <lane id=":C1_0_0" index="0" speed="6.62" length="9.27" width="3.50" shape="234.75,131.00 234.39,128.48 233.31,126.69 231.52,125.61 229.00,125.25"/>
    </edge>
    <edge id=":C1_1" function="internal">
        <lane id=":C1_1_0" index="0" speed="20.00" length="22.00" width="3.50" shape="234.75,131.00 234.75,109.00"/>
        <lane id=":C1_1_1" index="1" speed="20.00" length="22.00" width="3.50" shape="238.25,131.00 238.25,109.00"/>
    </edge>
    <edge id=":C1_3" function="internal">
        <lane id=":C1_3_0" index="0" speed="9.31" length="19.47" width="3.50" shape="238.25,131.00 239.40,126.47 242.37,122.37 246.47,119.40 251.00,118.25"/>
    </edge>
    <edge id=":C1_4" function="internal">
        <lane id=":C1_4_0" index="0" speed="6.62" length="9.27" width="3.50" shape="251.00,125.25 248.48,125.61 246.69,126.69 245.61,128.48 245.25,131.00"/>
    </edge>
    <edge id=":C1_5" function="internal">
        <lane id=":C1_5_0" index="0" speed="20.00" length="22.00" width="3.50" shape="251.00,125.25 229.00,125.25"/>
        <lane id=":C1_5_1" index="1" speed="20.00" length="22.00" width="3.50" shape="251.00,121.75 229.00,121.75"/>
    </edge>
    <edge id=":C1_7" function="internal">
        <lane id=":C1_7_0" index="0" speed="9.31" length="19.47" width="3.50" shape="251.00,121.75 246.47,120.60 242.37,117.63 239.40,113.53 238.25,109.00"/>
    </edge>
    <edge id=":C1_8" function="internal">
        <lane id=":C1_8_0" index="0" speed="6.62" length="9.27" width="3.50" shape="245.25,109.00 245.61,111.52 246.69,113.31 248.48,114.39 251.00,114.75"/>
    </edge>
    <edge id=":C1_9" function="internal">
        <lane id=":C1_9_0" index="0" speed="20.00" length="22.00" width="3.50" shape="245.25,109.00 245.25,131.00"/>
        <lane id=":C1_9_1" index="1" speed="20.00" length="22.00" width="3.50" shape="241.75,109.00 241.75,131.00"/>
    </edge>
    <edge id=":C1_11" function="internal">
        <lane id=":C1_11_0" index="0" speed="9.31" length="19.47" width="3.50" shape="241.75,109.00 240.60,113.53 237.63,117.63 233.53,120.60 229.00,121.75"/>
    </edge>
    <edge id=":C1_12" function="internal">
        <lane id=":C1_12_0" index="0" speed="6.62" length="9.27" width="3.50" shape="229.00,114.75 231.52,114.39 233.31,113.31 234.39,111.52 234.75,109.00"/>
    </edge>
    <edge id=":C1_13" function="internal">
        <lane id=":C1_13_0" index="0" speed="20.00" length="22.00" width="3.50" shape="229.00,114.75 251.00,114.75"/>
        <lane id=":C1_13_1" index="1" speed="20.00" length="22.00" width="3.50" shape="229.00,118.25 251.00,118.25"/>
    </edge>
    <edge id=":C1_15" function="internal">
        <lane id=":C1_15_0" index="0" speed="9.31" length="19.47" width="3.50" shape="229.00,118.25 233.53,119.40 237.63,122.37 240.60,126.47 241.75,131.00"/>
    </edge>
    <edge id=":C2_0" function="internal">
        <lane id=":C2_0_0" index="0" speed="6.62" length="9.27" width="3.50" shape="234.75,251.00 234.39,248.48 233.31,246.69 231.52,245.61 229.00,245.25"/>
    </edge>
    <edge id=":C2_1" function="internal">
        <lane id=":C2_1_0" index="0" speed="20.00" length="22.00" width="3.50" shape="234.75,251.00 234.75,229.00"/>
        <lane id=":C2_1_1" index="1" speed="20.00" length="22.00" width="3.50" shape="238.25,251.00 238.25,229.00"/>
    </edge>
    <edge id=":C2_3" function="internal">
        <lane id=":C2_3_0" index="0" speed="9.31" length="19.47" width="3.50" shape="238.25,251.00 239.40,246.47 242.37,242.37 246.47,239.40 251.00,238.25"/>
    </edge>
    <edge id=":C2_4" function="internal">
        <lane id=":C2_4_0" index="0" speed="6.62" length="9.27" width="3.50" shape="251.00,245.25 248.48,245.61 246.69,246.69 245.61,248.48 245.25,251.00"/>
    </edge>
    <edge id=":C2_5" function="internal">
        <lane id=":C2_5_0" index="0" speed="20.00" length="22.00" width="3.50" shape="251.00,245.25 229.00,245.25"/>
        <lane id=":C2_5_1" index="1" speed="20.00" length="22.00" width="3.50" shape="251.00,241.75 229.00,241.75"/>
    </edge>
    <edge id=":C2_7" function="internal">
        <lane id=":C2_7_0" index="0" speed="9.31" length="19.47" width="3.50" shape="251.00,241.75 246.47,240.60 242.37,237.63 239.40,233.53 238.25,229.00"/>
    </edge>
    <edge id=":C2_8" function="internal">
        <lane id=":C2_8_0" index="0" speed="6.62" length="9.27" width="3.50" shape="245.25,229.00 245.61,231.52 246.69,233.31 248.48,234.39 251.00,234.75"/>
    </edge>
    <edge id=":C2_9" function="internal">