<?xml version="1.0" encoding="UTF-8"?>

<!-- generated on Sun Jun 23 23:06:48 2019 by Eclipse SUMO jtrrouter Version 1.2.0
<configuration xmlns:xsi="http://www.w3.org/2001/XMLSchema-instance" xsi:noNamespaceSchemaLocation="http://sumo.dlr.de/xsd/jtrrouterConfiguration.xsd">

    <input>
        <net-file value="grid_5x5/grid_scenario_regulated.net.xml"/>
        <additional-files value="type.add.xml"/>
        <route-files value="flows_5x5.xml"/>
    </input>

    <output>
        <output-file value="grid_5x5/grid_scenario_v200.rou.xml"/>
    </output>

    <processing>
        <no-internal-links value="false"/>
        <turn-defaults value="25,50,25"/>
        <accept-all-destinations value="true"/>
        <allow-loops value="true"/>
    </processing>

</configuration>
-->

<routes xmlns:xsi="http://www.w3.org/2001/XMLSchema-instance" xsi:noNamespaceSchemaLocation="http://sumo.dlr.de/xsd/routes_file.xsd">
    <vType id="car" length="5.00" maxSpeed="28.00" vClass="passenger" color="0,171,0" jmDriveAfterRedTime="300"/>
    <vehicle id="0.0" type="car" depart="0.00">
        <route edges="B4A4 A4A3 A3B3 B3B2 B2B1 B1B0 B0A0 A0A1 A1B1 B1C1 C1D1 D1D0 D0E0 E0F0 F0F1 F1E1 E1D1 D1D2 D2C2 C2B2 B2A2 A2A3 A3A4 A4B4 B4C4 C4C5 C5B5 B5B4 B4B3 B3B2 B2A2 A2A3 A3B3 B3B4 B4C4 C4C5 C5D5 D5E5 E5E4 E4D4 D4D5 D5E5 E5F5 F5F4 F4E4 E4E5 E5D5 D5C5 C5C4 C4B4 B4A4 A4A3 A3B3 B3C3 C3C4 C4B4 B4A4 A4A5 A5B5 B5B4 B4C4 C4C3 C3C2 C2B2 B2B3 B3B4 B4B5 B5A5 A5A4 A4A3 A3B3 B3C3 C3D3 D3D2 D2D1 D1C1 C1C2 C2D2 D2D1 D1D0 D0C0 C0C1 C1D1 D1E1 E1F1 F1F2 F2F3 F3E3 E3E2 E2E1 E1E0 E0D0 D0C0 C0C1 C1C2 C2D2 D2D3 D3D4 D4C4 C4B4 B4A4 A4A3 A3A2 A2B2 B2C2 C2C3 C3C4 C4C5 C5D5 D5E5 E5E4 E4E3 E3E2 E2F2 F2F1 F1F0 F0E0 E0D0 D0D1 D1C1 C1B1 B1A1 A1A2 A2B2 B2C2 C2C3 C3B3 B3B4 B4A4 A4A5 A5B5 B5B4 B4B3 B3B2 B2B1 B1B0 B0C0 C0C1 C1D1 D1D2 D2D3 D3C3 C3C2 C2C1 C1B1 B1B0 B0C0 C0D0 D0D1 D1E1 E1F1 F1F2 F2F3 F3F4 F4F5 F5E5 E5E4 E4D4 D4C4 C4C3 C3C2 C2B2 B2B1 B1C1 C1D1 D1D2 D2D3 D3C3 C3C2 C2C1 C1D1 D1E1 E1E0 E0D0 D0D1 D1D2 D2D3 D3D4 D4D5 D5C5 C5B5 B5B4 B4A4 A4A3 A3A2 A2A1 A1A0 A0B0 B0C0 C0C1 C1C2 C2C3 C3B3 B3A3 A3A4 A4B4 B4B5 B5C5 C5D5 D5E5 E5F5 F5F4 F4E4 E4D4 D4D5 D5C5 C5C4 C4C3 C3B3 B3A3 A3A4 A4A5 A5B5 B5B4 B4C4 C4D4 D4E4 E4E3 E3F3 F3F2 F2E2 E2D2 D2D3 D3D4 D4E4 E4F4 F4F5 F5E5 E5D5 D5D4 D4C4 C4C5 C5D5 D5D4 D4D3 D3D2 D2E2 E2E3 E3E4 E4D4 D4C4 C4C5 C5D5 D5E5 E5E4 E4D4 D4D5 D5C5 C5B5 B5A5 A5A4 A4A3 A3B3 B3C3 C3D3 D3E3 E3F3 F3F4 F4E4 E4D4 D4C4 C4B4 B4B3 B3B2 B2A2 A2A3 A3B3 B3C3 C3C2 C2D2 D2D3 D3D4 D4E4 E4E5 E5D5 D5C5 C5B5 B5B4 B4C4 C4D4 D4D5 D5E5 E5F5 F5F4 F4E4 E4E5 E5D5 D5D4 D4D3 D3E3 E3E2 E2F2 F2F3 F3F4 F4F5 F5E5 E5E4 E4E3 E3E2 E2E1 E1F1 F1F2 F2E2 E2D2 D2D3 D3D4 D4C4 C4C3 C3C2 C2B2 B2B1 B1B0 B0A0 A0A1 A1A2 A2B2 B2B1 B1A1 A1A2 A2B2 B2C2 C2D2 D2E2 E2E3 E3F3 F3F4 F4E4 E4D4 D4C4 C4B4 B4A4 A4A3 A3A2 A2A1 A1B1 B1B0 B0A0 A0A1 A1B1 B1B2 B2B3 B3A3 A3A2 A2A1 A1B1 B1C1 C1C0 C0D0 D0E0 E0E1 E1E2 E2E3 E3F3 F3F2 F2F1 F1F0 F0E0 E0D0 D0C0 C0B0 B0A0 A0A1 A1B1 B1C1 C1C2 C2C3 C3C4 C4B4 B4B5 B5A5 A5A4 A4A3 A3B3 B3B4 B4C4 C4C3 C3B3 B3B2 B2C2 C2D2 D2E2 E2E3 E3E4 E4F4 F4F5 F5E5 E5D5 D5C5 C5C4 C4C3 C3C2 C2B2 B2A2 A2A1 A1B1 B1B0 B0A0 A0A1 A1A2 A2A3 A3B3 B3C3 C3C2 C2B2 B2A2 A2A1 A1A0 A0B0 B0C0 C0D0 D0E0 E0E1 E1D1 D1D0 D0C0 C0B0 B0B1 B1A1 A1A0 A0B0 B0C0 C0C1 C1C2 C2B2 B2B3 B3C3 C3D3 D3D4 D4D5 D5C5 C5B5 B5A5 A5A4 A4B4 B4C4 C4D4 D4D3 D3E3 E3F3 F3F4 F4F5 F5E5 E5E4 E4E3 E3E2 E2E1 E1D1 D1D2 D2C2 C2B2 B2A2 A2A3 A3A4 A4B4 B4B3 B3B2 B2B1 B1B0 B0C0 C0D0 D0D1 D1D2 D2D3 D3E3 E3E4 E4D4 D4D5 D5E5 E5F5 F5F4 F4F3 F3F2 F2F1 F1F0 F0E0 E0D0 D0C0 C0B0 B0A0 A0A1 A1B1 B1B2 B2C2 C2D2 D2D1 D1E1 E1E0 E0F0 F0F1 F1E1 E1E2 E2E3 E3E4 E4E5 E5D5 D5C5 C5B5 B5A5 A5A4 A4B4 B4B5 B5A5 A5A4 A4A3 A3B3 B3B2 B2B1 B1B0 B0A0 A0A1 A1A2 A2B2 B2C2 C2D2 D2D3 D3D4 D4E4 E4F4 F4F5 F5E5 E5D5 D5D4 D4D3 D3C3 C3C4 C4B4 B4B5 B5A5 A5A4 A4A3 A3B3 B3B2 B2B1 B1B0 B0C0 C0D0 D0D1 D1D2 D2D3 D3C3 C3C4 C4C5 C5B5 B5A5 A5A4 A4A3 A3B3 B3C3 C3C2 C2C1 C1C0 C0D0 D0E0 E0E1 E1D1 D1C1 C1C0 C0B0 B0B1 B1B2 B2B3 B3B4 B4C4 C4C5 C5B5 B5B4 B4B3 B3C3 C3D3 D3D2 D2D1 D1D0 D0E0 E0E1 E1E2 E2E3 E3E4 E4D4 D4C4 C4C5 C5D5 D5E5 E5F5 F5F4 F4F3 F3F2 F2F1 F1F0 F0E0 E0D0 D0D1 D1C1 C1B1 B1B0 B0A0 A0A1 A1B1 B1B0 B0A0 A0A1 A1B1 B1B0 B0C0 C0D0 D0E0 E0E1 E1E2 E2E3 E3E4 E4D4 D4D3 D3E3 E3E2 E2E1 E1D1 D1D2 D2C2 C2B2 B2A2 A2A1 A1B1 B1B2 B2B3 B3B4 B4A4 A4A3 A3A2 A2B2 B2C2 C2C1 C1D1 D1E1 E1F1 F1F2 F2E2 E2E3 E3E4 E4E5 E5F5 F5F4 F4F3 F3E3 E3D3 D3C3 C3B3 B3B4 B4C4 C4C5 C5B5 B5A5 A5A4 A4B4 B4B3 B3A3 A3A4 A4B4 B4B3 B3C3 C3D3 D3E3 E3E4 E4F4 F4F5 F5E5 E5E4 E4E3 E3F3 F3F4 F4F5 F5E5 E5D5 D5D4 D4D3 D3C3 C3B3 B3B4 B4B5 B5C5 C5C4 C4B4 B4A4 A4A5 A5B5 B5B4 B4B3 B3A3 A3A2 A2B2 B2B3 B3B4 B4B5 B5A5 A5A4 A4A3 A3B3 B3C3 C3D3 D3D4 D4D5 D5C5 C5B5 B5B4 B4A4 A4A5 A5B5 B5B4 B4B3 B3B2 B2B1 B1A1 A1A0 A0B0 B0B1 B1C1 C1D1 D1E1 E1E2 E2E3 E3E4 E4D4 D4D5 D5E5 E5F5 F5F4 F4F3 F3F2 F2E2 E2E3 E3D3 D3D2 D2D1 D1D0 D0C0 C0C1 C1C2 C2C3 C3D3 D3E3 E3E2 E2F2 F2F3 F3F4 F4F5 F5E5 E5D5 D5C5 C5B5 B5A5 A5A4 A4A3 A3B3 B3B4 B4B5 B5C5 C5D5 D5E5 E5F5 F5F4 F4F3 F3F2 F2E2 E2D2 D2D1 D1C1 C1C0 C0B0 B0B1 B1B2 B2B3 B3A3 A3A4 A4A5 A5B5 B5B4 B4C4 C4D4 D4D5 D5C5 C5B5 B5B4 B4B3 B3C3 C3C2 C2B2 B2B3 B3B4 B4B5 B5C5 C5D5 D5D4 D4D3 D3C3 C3C4 C4B4 B4A4 A4A3 A3B3 B3B4 B4A4 A4A5 A5B5 B5B4 B4B3 B3A3 A3A4 A4A5 A5B5 B5B4 B4A4 A4A5 A5B5 B5C5 C5D5 D5D4 D4E4 E4E3 E3D3 D3D2 D2D1 D1D0 D0E0 E0F0 F0F1 F1F2 F2E2 E2D2 D2C2 C2C1 C1C0 C0D0 D0E0 E0E1 E1D1 D1C1 C1B1 B1A1 A1A0 A0B0 B0C0 C0C1 C1C2 C2C3 C3B3 B3A3 A3A4 A4A5 A5B5 B5C5 C5C4 C4B4 B4A4 A4A5 A5B5 B5B4 B4B3 B3B2 B2B1 B1B0 B0C0 C0D0 D0E0 E0F0 F0F1 F1E1 E1E2 E2E3 E3E4 E4D4 D4D5 D5E5 E5F5 F5F4 F4E4 E4D4 D4D5 D5C5 C5B5 B5B4 B4A4 A4A5 A5B5 B5C5 C5D5 D5D4 D4D3 D3D2 D2D1 D1D0 D0C0 C0C1 C1B1 B1A1 A1A0 A0B0 B0B1 B1B2 B2B3 B3B4 B4C4 C4C5 C5D5 D5D4 D4C4 C4B4 B4B5 B5C5 C5D5 D5E5 E5F5 F5F4 F4E4 E4D4 D4C4 C4C3 C3C2 C2C1 C1C0 C0D0 D0E0 E0E1 E1D1 D1D0 D0C0 C0C1 C1D1 D1D0 D0E0 E0F0 F0F1 F1F2 F2E2 E2E3 E3E4 E4D4 D4D3 D3D2 D2E2 E2F2 F2F1 F1E1 E1E0 E0F0 F0F1 F1F2"/>
    </vehicle>
    <vehicle id="1.0" type="car" depart="0.00">
        <route edges="C2C1 C1B1 B1B0 B0C0 C0C1 C1D1 D1E1 E1F1 F1F0 F0E0 E0E1 E1E2 E2E3 E3E4 E4F4 F4F5 F5E5 E5D5 D5D4 D4E4 E4E3 E3E2 E2F2 F2F1 F1E1 E1E0 E0D0 D0C0 C0B0 B0A0 A0A1 A1B1 B1B0 B0C0 C0D0 D0E0 E0E1 E1D1 D1D2 D2D3 D3D4 D4C4 C4C5 C5D5 D5E5 E5F5 F5F4 F4E4 E4E5 E5D5 D5C5 C5B5 B5B4 B4A4 A4A3 A3A2 A2B2 B2C2 C2D2 D2E2 E2F2 F2F3 F3E3 E3D3 D3D2 D2C2 C2B2 B2B3 B3B4 B4C4 C4C3 C3C2 C2C1 C1D1 D1E1 E1E2 E2D2 D2D1 D1C1 C1B1 B1A1 A1A0 A0B0 B0C0 C0D0 D0E0 E0F0 F0F1 F1F2 F2E2 E2E3 E3F3 F3F2 F2F1 F1F0 F0E0 E0E1 E1F1 F1F2 F2E2 E2D2 D2C2 C2B2 B2A2 A2A1 A1A0 A0B0 B0B1 B1B2 B2A2 A2A1 A1A0 A0B0 B0B1 B1B2 B2B3 B3C3 C3D3 D3D4 D4D5 D5C5 C5C4 C4B4 B4B3 B3B2 B2C2 C2C1 C1D1 D1E1 E1E0 E0D0 D0D1 D1D2 D2D3 D3D4 D4D5 D5E5 E5F5 F5F4 F4E4 E4D4 D4D3 D3D2 D2D1 D1C1 C1B1 B1B0 B0A0 A0A1 A1A2 A2A3 A3B3 B3B4 B4A4 A4A3 A3B3 B3C3 C3C2 C2C1 C1D1 D1D2 D2C2 C2B2 B2B1 B1B0 B0A0 A0A1 A1A2 A2A3 A3A4 A4B4 B4B3 B3A3 A3A2 A2B2 B2B1 B1C1 C1C0 C0B0 B0A0 A0A1 A1A2 A2B2 B2B3 B3A3 A3A2 A2B2 B2B1 B1B0 B0C0 C0C1 C1D1 D1D0 D0E0 E0E1 E1E2 E2F2 F2F1 F1F0 F0E0 E0E1 E1E2 E2D2 D2D1 D1C1 C1B1 B1A1 A1A0 A0B0 B0C0 C0D0 D0D1 D1D2 D2D3 D3E3 E3F3 F3F2 F2F1 F1F0 F0E0 E0D0 D0C0 C0C1 C1C2 C2C3 C3D3 D3E3 E3F3 F3F4 F4F5 F5E5 E5E4 E4E3 E3E2 E2E1 E1E0 E0F0 F0F1 F1E1 E1E0 E0F0 F0F1 F1E1 E1E0 E0D0 D0D1 D1D2 D2C2 C2B2 B2B1 B1B0 B0A0 A0A1 A1B1 B1C1 C1D1 D1D2 D2D3 D3D4 D4E4 E4F4 F4F3 F3E3 E3E4 E4F4 F4F3 F3F2 F2F1 F1E1 E1D1 D1C1 C1B1 B1A1 A1A2 A2B2 B2B1 B1A1 A1A0 A0B0 B0C0 C0C1 C1B1 B1A1 A1A0 A0B0 B0B1 B1B2 B2B3 B3B4 B4A4 A4A5 A5B5 B5B4 B4C4 C4C3 C3C2 C2D2 D2E2 E2E1 E1E0 E0F0 F0F1 F1F2 F2F3 F3F4 F4E4 E4E3 E3E2 E2F2 F2F3 F3E3 E3E2 E2F2 F2F1 F1F0 F0E0 E0D0 D0D1 D1E1 E1E0 E0D0 D0D1 D1D2 D2D3 D3C3 C3B3 B3B4 B4B5 B5C5 C5C4 C4C3 C3C2 C2D2 D2D3 D3D4 D4D5 D5E5 E5F5 F5F4 F4F3 F3E3 E3D3 D3C3 C3C2 C2C1 C1D1 D1D0 D0C0 C0B0 B0A0 A0A1 A1A2 A2B2 B2C2 C2D2 D2E2 E2F2 F2F3 F3F4 F4F5 F5E5 E5D5 D5D4 D4C4 C4C5 C5B5 B5A5 A5A4 A4B4 B4B5 B5C5 C5C4 C4C3 C3C2 C2C1 C1C0 C0D0 D0D1 D1D2 D2E2 E2E1 E1D1 D1C1 C1B1 B1B0 B0C0 C0C1 C1C2 C2C3 C3B3 B3A3 A3A2 A2A1 A1A0 A0B0 B0B1 B1A1 A1A0 A0B0 B0C0 C0D0 D0E0 E0F0 F0F1 F1E1 E1D1 D1C1 C1B1 B1A1 A1A0 A0B0 B0C0 C0D0 D0E0 E0E1 E1E2 E2F2 F2F1 F1E1 E1D1 D1C1 C1B1 B1B0 B0A0 A0A1 A1A2 A2A3 A3A4 A4B4 B4B3 B3A3 A3A4 A4A5 A5B5 B5B4 B4A4 A4A3 A3B3 B3C3 C3D3 D3D2 D2E2 E2E1 E1E0 E0D0 D0D1 D1E1 E1F1 F1F0 F0E0 E0D0 D0D1 D1E1 E1E0 E0D0 D0C0 C0C1 C1C2 C2C3 C3C4 C4D4 D4D3 D3C3 C3C4 C4B4 B4A4 A4A3 A3A2 A2A1 A1A0 A0B0 B0C0 C0D0 D0D1 D1C1 C1C0 C0B0 B0A0 A0A1 A1A2 A2A3 A3A4 A4A5 A5B5 B5C5 C5C4 C4D4 D4D5 D5E5 E5F5 F5F4 F4E4 E4D4 D4D3 D3D2 D2D1 D1C1 C1B1 B1B2 B2B3 B3A3 A3A2 A2A1 A1A0 A0B0 B0C0 C0C1 C1C2 C2C3 C3C4 C4D4 D4D3 D3E3 E3E2 E2E1 E1F1 F1F2 F2F3 F3E3 E3D3 D3C3 C3B3 B3B2 B2B1 B1A1 A1A2 A2A3 A3A4 A4B4 B4B3 B3A3 A3A4 A4B4 B4B5 B5A5 A5A4 A4B4 B4B3 B3A3 A3A4 A4B4 B4C4 C4C3 C3C2 C2B2 B2B3 B3A3 A3A4 A4A5 A5B5 B5B4 B4A4 A4A5 A5B5 B5B4 B4B3 B3B2 B2B1 B1B0 B0A0 A0A1 A1A2 A2B2 B2C2 C2C1 C1C0 C0B0 B0B1 B1A1 A1A0 A0B0 B0C0 C0C1 C1D1 D1D0 D0C0 C0C1 C1C2 C2B2 B2B3 B3B4 B4B5 B5A5 A5A4 A4B4 B4B3 B3A3 A3A4 A4B4 B4C4 C4C5 C5B5 B5B4 B4A4 A4A5 A5B5 B5C5 C5C4 C4D4 D4D3 D3C3 C3C2 C2C1 C1D1 D1E1 E1F1 F1F0 F0E0 E0E1 E1E2 E2F2 F2F1 F1F0 F0E0 E0E1 E1E2 E2E3 E3D3 D3C3 C3C2 C2D2 D2D1 D1C1 C1C0 C0B0 B0A0 A0A1 A1A2 A2B2 B2C2 C2D2 D2E2 E2F2 F2F1 F1E1 E1E2 E2E3 E3D3 D3D4 D4D5 D5C5 C5C4 C4D4 D4D3 D3D2 D2D1 D1C1 C1B1 B1B0 B0C0 C0D0 D0E0 E0F0 F0F1 F1F2 F2F3 F3F4 F4F5 F5E5 E5D5 D5D4 D4E4 E4E5 E5F5 F5F4 F4F3 F3E3 E3D3 D3C3 C3C2 C2C1 C1D1 D1D2 D2D3 D3E3 E3F3 F3F2 F2F1 F1F0 F0E0 E0D0 D0C0 C0C1 C1B1 B1A1 A1A2 A2A3 A3B3 B3C3 C3D3 D3E3 E3E4 E4D4 D4C4 C4C5 C5B5 B5B4 B4B3 B3B2 B2A2 A2A1 A1B1 B1C1 C1C2 C2C3 C3C4 C4C5 C5D5 D5D4 D4C4 C4B4 B4A4 A4A3 A3B3 B3C3 C3C4 C4C5 C5B5 B5B4 B4B3 B3A3 A3A2 A2B2 B2B3 B3B4 B4B5 B5C5 C5C4 C4D4 D4D3 D3C3 C3B3 B3B2 B2C2 C2D2 D2D1 D1C1 C1C2 C2C3 C3B3 B3A3 A3A2 A2A1 A1A0 A0B0 B0B1 B1A1 A1A2 A2A3 A3B3 B3C3 C3C2 C2C1 C1D1 D1D2 D2E2 E2E3 E3E4 E4F4 F4F3 F3E3 E3E4 E4D4 D4C4 C4B4 B4B3 B3A3 A3A2 A2A1 A1A0 A0B0 B0C0 C0D0 D0E0 E0E1 E1E2 E2D2 D2C2 C2C3 C3C4 C4C5 C5B5 B5A5 A5A4 A4B4 B4B3 B3C3 C3D3 D3E3 E3E2 E2D2 D2D3 D3E3 E3E4 E4E5 E5F5 F5F4 F4F3 F3E3 E3E2 E2D2 D2D1 D1D0 D0C0 C0C1 C1B1 B1B2 B2B3 B3C3 C3C4 C4B4 B4A4 A4A3 A3A2 A2A1 A1B1 B1B0 B0C0 C0C1 C1D1 D1E1 E1F1 F1F2 F2E2 E2D2 D2C2 C2B2 B2A2 A2A3 A3B3 B3C3 C3D3 D3E3 E3F3 F3F2 F2F1 F1E1 E1E2 E2D2 D2C2 C2C3 C3C4 C4D4 D4E4 E4E5 E5D5 D5C5 C5C4 C4D4 D4D5 D5C5 C5B5 B5A5 A5A4 A4A3 A3A2 A2A1 A1B1 B1C1 C1C0 C0B0 B0A0 A0A1 A1B1 B1C1 C1D1 D1E1 E1E0 E0D0 D0C0 C0C1 C1D1 D1D0 D0E0 E0E1 E1F1 F1F0 F0E0 E0E1 E1D1 D1D0 D0E0 E0E1 E1F1 F1F2 F2E2 E2D2 D2C2 C2B2 B2A2 A2A3 A3B3 B3C3 C3C4 C4D4 D4D3 D3D2 D2C2 C2C3 C3C4 C4B4 B4A4 A4A5 A5B5 B5B4 B4B3 B3A3 A3A4 A4A5 A5B5 B5B4 B4B3 B3B2 B2B1 B1B0 B0C0 C0C1 C1B1 B1A1 A1A0 A0B0 B0B1 B1A1 A1A2 A2B2 B2B3 B3B4 B4C4 C4C3 C3C2 C2C1 C1C0 C0D0 D0E0 E0E1 E1E2 E2D2 D2C2 C2B2 B2A2 A2A1 A1A0 A0B0 B0B1"/>
    </vehicle>
    <vehicle id="10.0" type="car" depart="0.00">
        <route edges="D0C0 C0B0 B0B1 B1B2 B2B3 B3C3 C3D3 D3E3 E3E2 E2E1 E1E0 E0D0 D0C0 C0B0 B0A0 A0A1 A1A2 A2B2 B2B1 B1B0 B0A0 A0A1 A1A2 A2B2 B2B3 B3B4 B4B5 B5A5 A5A4 A4A3 A3A2 A2B2 B2C2 C2D2 D2E2 E2E3 E3F3 F3F2 F2E2 E2D2 D2D1 D1D0 D0E0 E0E1 E1D1 D1D0 D0C0 C0C1 C1C2 C2C3 C3D3 D3D4 D4D5 D5C5 C5C4 C4C3 C3B3 B3A3 A3A4 A4A5 A5B5 B5B4 B4B3 B3B2 B2A2 A2A1 A1B1 B1B2 B2B3 B3C3 C3C2 C2C1 C1C0 C0D0 D0E0 E0F0 F0F1 F1E1 E1E2 E2F2 F2F3 F3E3 E3E4 E4F4 F4F3 F3F2 F2F1 F1E1 E1D1 D1D2 D2D3 D3C3 C3C2 C2D2 D2E2 E2F2 F2F3 F3F4 F4E4 E4D4 D4D5 D5C5 C5C4 C4C3 C3C2 C2D2 D2E2 E2E3 E3E4 E4F4 F4F3 F3F2 F2F1 F1F0 F0E0 E0D0 D0D1 D1E1 E1F1 F1F0 F0E0 E0E1 E1E2 E2F2 F2F1 F1E1 E1D1 D1D0 D0E0 E0F0 F0F1 F1E1 E1D1 D1D2 D2E2 E2E3 E3F3 F3F4 F4F5 F5E5 E5D5 D5C5 C5C4 C4C3 C3C2 C2C1 C1D1 D1E1 E1F1 F1F0 F0E0 E0D0 D0C0 C0C1 C1C2 C2C3 C3B3 B3B4 B4B5 B5C5 C5C4 C4C3 C3D3 D3E3 E3E4 E4D4 D4D5 D5E5 E5E4 E4D4 D4D5 D5C5 C5C4 C4C3 C3C2 C2B2 B2A2 A2A1 A1B1 B1B0 B0C0 C0D0 D0E0 E0F0 F0F1 F1F2 F2E2 E2E1 E1D1 D1C1 C1C0 C0B0 B0A0 A0A1 A1B1 B1B0 B0A0 A0A1 A1B1 B1C1 C1D1 D1E1 E1E0 E0F0 F0F1 F1F2 F2F3 F3F4 F4E4 E4D4 D4C4 C4C5 C5B5 B5A5 A5A4 A4B4 B4C4 C4D4 D4E4 E4E3 E3D3 D3C3 C3B3 B3B2 B2B1 B1B0 B0A0 A0A1 A1B1 B1C1 C1D1 D1E1 E1F1 F1F0 F0E0 E0E1 E1E2 E2E3 E3D3 D3C3 C3C4 C4C5 C5B5 B5B4 B4B3 B3C3 C3D3 D3D2 D2D1 D1E1 E1F1 F1F0 F0E0 E0E1 E1E2 E2E3 E3F3 F3F4 F4E4 E4D4 D4D3 D3D2 D2E2 E2E3 E3F3 F3F2 F2F1 F1E1 E1E0 E0F0 F0F1 F1E1 E1E2 E2F2 F2F3 F3F4 F4E4 E4E3 E3F3 F3F2 F2F1 F1F0 F0E0 E0D0 D0C0 C0B0 B0B1 B1B2 B2B3 B3B4 B4B5 B5A5 A5A4 A4A3 A3A2 A2B2 B2B1 B1A1 A1A0 A0B0 B0B1 B1C1 C1D1 D1D2 D2D3 D3D4 D4D5 D5C5 C5C4 C4D4 D4D5 D5C5 C5C4 C4C3 C3B3 B3B4 B4A4 A4A5 A5B5 B5B4 B4A4 A4A3 A3B3 B3B2 B2B1 B1C1 C1D1 D1D0 D0E0 E0F0 F0F1 F1F2 F2F3 F3F4 F4E4 E4E5 E5D5 D5D4 D4E4 E4E3 E3E2 E2D2 D2C2 C2B2 B2B3 B3B4 B4C4 C4C5 C5D5 D5E5 E5E4 E4D4 D4D3 D3C3 C3B3 B3A3 A3A4 A4B4 B4C4 C4C3 C3C2 C2D2 D2D3 D3C3 C3B3 B3B4 B4A4 A4A3 A3B3 B3C3 C3C2 C2B2 B2B3 B3B4 B4C4 C4D4 D4E4 E4F4 F4F3 F3E3 E3E2 E2E1 E1E0 E0D0 D0D1 D1D2 D2D3 D3E3 E3F3 F3F4 F4E4 E4D4 D4C4 C4B4 B4B3 B3C3 C3C2 C2D2 D2E2 E2E3 E3E4 E4D4 D4C4 C4C5 C5D5 D5D4 D4E4 E4E5 E5D5 D5C5 C5B5 B5A5 A5A4 A4B4 B4C4 C4D4 D4D5 D5E5 E5F5 F5F4 F4E4 E4D4 D4D5 D5C5 C5B5 B5A5 A5A4 A4B4 B4B5 B5C5 C5D5 D5E5 E5F5 F5F4 F4E4 E4D4 D4D5 D5C5 C5C4 C4C3 C3B3 B3A3 A3A2 A2B2 B2C2 C2D2 D2D1 D1D0 D0C0 C0C1 C1C2 C2C3 C3C4 C4D4 D4E4 E4E3 E3D3 D3D2 D2E2 E2F2 F2F3 F3F4 F4F5 F5E5 E5D5 D5D4 D4C4 C4C3 C3D3 D3E3 E3F3 F3F2 F2E2 E2D2 D2D1 D1E1 E1F1 F1F0 F0E0 E0D0 D0D1 D1E1 E1E2 E2E3 E3E4 E4E5 E5F5 F5F4 F4E4 E4E5 E5F5 F5F4 F4F3 F3F2 F2E2 E2E3 E3D3 D3D4 D4C4 C4B4 B4A4 A4A5 A5B5 B5B4 B4B3 B3B2 B2A2 A2A1 A1A0 A0B0 B0B1 B1B2 B2B3 B3B4 B4A4 A4A5 A5B5 B5B4 B4C4 C4C3 C3C2 C2C1 C1C0 C0B0 B0A0 A0A1 A1A2 A2B2 B2B3 B3B4 B4B5 B5C5 C5D5 D5D4 D4D3 D3E3 E3E2 E2E1 E1D1 D1D0 D0C0 C0B0 B0A0 A0A1 A1B1 B1C1 C1C0 C0B0 B0A0 A0A1 A1A2 A2B2 B2C2 C2C1 C1B1 B1A1 A1A2 A2A3 A3A4 A4B4 B4C4 C4C5 C5B5 B5B4 B4C4 C4D4 D4D5 D5C5 C5C4 C4C3 C3C2 C2C1 C1D1 D1E1 E1E0 E0D0 D0C0 C0B0 B0B1 B1B2 B2C2 C2C3 C3C4 C4C5 C5D5 D5E5 E5E4 E4F4 F4F5 F5E5 E5E4 E4F4 F4F5 F5E5 E5D5 D5D4 D4D3 D3D2 D2D1 D1D0 D0C0 C0C1 C1B1 B1B2 B2A2 A2A3 A3A4 A4B4 B4C4 C4D4 D4D5 D5C5 C5B5 B5B4 B4B3 B3C3 C3D3 D3E3 E3E2 E2F2 F2F3 F3E3 E3D3 D3D4 D4E4 E4F4 F4F3 F3F2 F2F1 F1F0 F0E0 E0D0 D0D1 D1D2 D2D3 D3E3 E3E4 E4D4 D4C4 C4B4 B4A4 A4A3 A3A2 A2A1 A1B1 B1B2 B2C2 C2D2 D2E2 E2E1 E1D1 D1C1 C1B1 B1A1 A1A2 A2B2 B2B1 B1B0 B0C0 C0C1 C1B1 B1A1 A1A2 A2A3 A3B3 B3C3 C3D3 D3D2 D2D1 D1E1 E1E0 E0D0 D0D1 D1D2 D2D3 D3E3 E3F3 F3F4 F4E4 E4D4 D4D3 D3D2 D2E2 E2E3 E3D3 D3D2 D2D1 D1C1 C1C2 C2C3 C3C4 C4C5 C5D5 D5E5 E5E4 E4D4 D4C4 C4C5 C5D5 D5E5 E5E4 E4E3 E3E2 E2E1 E1D1 D1C1 C1B1 B1B0 B0A0 A0A1 A1B1 B1C1 C1D1 D1D2 D2E2 E2F2 F2F1 F1E1 E1E2 E2E3 E3D3 D3C3 C3C4 C4B4 B4B3 B3A3 A3A2 A2A1 A1A0 A0B0 B0C0 C0D0 D0E0 E0F0 F0F1 F1E1 E1D1 D1C1 C1B1 B1B0 B0A0 A0A1 A1B1 B1B0 B0A0 A0A1 A1B1 B1B0 B0A0 A0A1 A1A2 A2A3 A3A4 A4A5 A5B5 B5C5 C5D5 D5E5 E5E4 E4D4 D4D3 D3D2 D2E2 E2F2 F2F1 F1F0 F0E0 E0D0 D0D1 D1D2 D2D3 D3D4 D4D5 D5E5 E5F5 F5F4 F4F3 F3F2 F2F1 F1E1 E1D1 D1C1 C1C2 C2B2 B2A2 A2A1 A1A0 A0B0 B0C0 C0C1 C1C2 C2C3 C3C4 C4D4 D4E4 E4F4 F4F3 F3F2 F2E2 E2E3 E3F3 F3F4 F4E4 E4D4 D4C4 C4C5 C5B5 B5B4 B4A4 A4A5 A5B5 B5B4 B4B3 B3B2 B2B1 B1A1 A1A2 A2A3 A3A4 A4B4 B4B5 B5A5 A5A4 A4A3 A3A2 A2A1 A1B1 B1C1 C1D1 D1E1 E1E0 E0D0 D0C0 C0B0 B0A0 A0A1 A1A2 A2B2 B2B1 B1A1 A1A0 A0B0 B0C0 C0D0 D0E0 E0F0 F0F1 F1E1 E1D1 D1D0 D0C0 C0B0 B0B1 B1B2 B2B3 B3B4 B4B5 B5C5 C5C4 C4D4 D4E4 E4F4 F4F5 F5E5 E5E4 E4E3 E3F3 F3F2 F2F1 F1F0 F0E0 E0E1 E1D1 D1C1 C1B1 B1B0 B0A0 A0A1 A1B1 B1C1 C1C2 C2C3 C3D3 D3E3 E3E2 E2F2 F2F1 F1F0 F0E0 E0E1 E1E2 E2E3 E3F3 F3F4 F4F5 F5E5 E5D5 D5D4 D4D3 D3C3 C3C4 C4C5 C5D5 D5D4 D4E4 E4E3 E3E2 E2E1 E1E0 E0F0 F0F1 F1F2 F2E2 E2D2 D2C2 C2B2 B2B1 B1A1 A1A0 A0B0 B0B1 B1C1 C1D1 D1D2 D2D3 D3D4 D4C4 C4C5 C5B5 B5B4 B4B3 B3B2 B2B1 B1B0 B0C0 C0C1 C1C2 C2D2 D2D3 D3D4 D4E4 E4E3 E3E2 E2E1"/>
    </vehicle>
    <vehicle id="100.0" type="car" depart="0.00">
        <route edges="D4D5 D5E5 E5E4 E4D4 D4C4 C4B4 B4B5 B5C5 C5D5 D5E5 E5E4 E4E3 E3E2 E2E1 E1E0 E0D0 D0C0 C0B0 B0A0 A0A1 A1B1 B1C1 C1D1 D1E1 E1E2 E2F2 F2F1 F1E1 E1D1 D1D2 D2D3 D3D4 D4C4 C4B4 B4A4 A4A3 A3B3 B3B4 B4C4 C4C3 C3C2 C2D2 D2E2 E2F2 F2F3 F3E3 E3D3 D3D4 D4D5 D5E5 E5E4 E4E3 E3F3 F3F4 F4F5 F5E5 E5D5 D5C5 C5B5 B5B4 B4B3 B3A3 A3A4 A4B4 B4B5 B5C5 C5D5 D5D4 D4E4 E4E5 E5F5 F5F4 F4F3 F3E3 E3D3 D3C3 C3C2 C2D2 D2E2 E2F2 F2F1 F1F0 F0E0 E0D0 D0C0 C0C1 C1D1 D1E1 E1F1 F1F2 F2E2 E2D2 D2C2 C2B2 B2B3 B3B4 B4B5 B5C5 C5D5 D5E5 E5E4 E4E3 E3E2 E2F2 F2F3 F3F4 F4F5 F5E5 E5D5 D5D4 D4C4 C4B4 B4A4 A4A5 A5B5 B5C5 C5D5 D5E5 E5F5 F5F4 F4F3 F3E3 E3E2 E2E1 E1E0 E0D0 D0C0 C0C1 C1C2 C2C3 C3C4 C4C5 C5B5 B5B4 B4B3 B3A3 A3A4 A4A5 A5B5 B5B4 B4A4 A4A5 A5B5 B5B4 B4A4 A4A3 A3A2 A2A1 A1B1 B1C1 C1D1 D1D2 D2E2 E2F2 F2F3 F3F4 F4F5 F5E5 E5D5 D5C5 C5B5 B5A5 A5A4 A4A3 A3B3 B3C3 C3C4 C4B4 B4A4 A4A3 A3B3 B3B2 B2A2 A2A3 A3B3 B3C3 C3D3 D3E3 E3F3 F3F2 F2E2 E2D2 D2D1 D1D0 D0C0 C0C1 C1B1 B1A1 A1A0 A0B0 B0B1 B1C1 C1D1 D1D2 D2C2 C2B2 B2B1 B1C1 C1D1 D1E1 E1F1 F1F2 F2F3 F3E3 E3D3 D3C3 C3B3 B3A3 A3A4 A4A5 A5B5 B5B4 B4B3 B3C3 C3C4 C4C5 C5B5 B5B4 B4A4 A4A5 A5B5 B5B4 B4A4 A4A5 A5B5 B5B4 B4A4 A4A5 A5B5 B5B4 B4A4 A4A3 A3B3 B3B2 B2B1 B1B0 B0A0 A0A1 A1B1 B1C1 C1D1 D1E1 E1F1 F1F2 F2E2 E2E1 E1F1 F1F2 F2E2 E2E3 E3D3 D3D4 D4E4 E4E3 E3E2 E2E1 E1E0 E0D0 D0D1 D1E1 E1E0 E0D0 D0D1 D1E1 E1F1 F1F2 F2E2 E2E1 E1F1 F1F2 F2F3 F3F4 F4F5 F5E5 E5D5 D5D4 D4C4 C4B4 B4B3 B3B2 B2C2 C2C1 C1B1 B1A1 A1A2 A2A3 A3A4 A4A5 A5B5 B5B4 B4B3 B3B2 B2C2 C2D2 D2E2 E2E1 E1D1 D1D0 D0C0 C0C1 C1D1 D1D2 D2C2 C2C3 C3B3 B3A3 A3A2 A2B2 B2B1 B1A1 A1A2 A2A3 A3A4 A4B4 B4B5 B5C5 C5D5 D5D4 D4E4 E4E3 E3E2 E2F2 F2F3 F3E3 E3D3 D3D4 D4D5 D5E5 E5E4 E4E3 E3F3 F3F2 F2F1 F1F0 F0E0 E0E1 E1F1 F1F0 F0E0 E0E1 E1D1 D1D2 D2D3 D3C3 C3C4 C4C5 C5B5 B5A5 A5A4 A4A3 A3B3 B3B4 B4A4 A4A3 A3B3 B3B2 B2A2 A2A1 A1B1 B1B0 B0C0 C0C1 C1C2 C2C3 C3B3 B3A3 A3A4 A4B4 B4C4 C4D4 D4D3 D3D2 D2D1 D1D0 D0E0 E0E1 E1E2 E2E3 E3E4 E4E5 E5F5 F5F4 F4F3 F3F2 F2E2 E2D2 D2C2 C2B2 B2A2 A2A1 A1A0 A0B0 B0B1 B1B2 B2C2 C2C1 C1C0 C0D0 D0E0 E0F0 F0F1 F1E1 E1D1 D1D0 D0C0 C0C1 C1B1 B1B2 B2B3 B3C3 C3D3 D3E3 E3E2 E2E1 E1D1 D1D0 D0E0 E0F0 F0F1 F1F2 F2F3 F3F4 F4F5 F5E5 E5D5 D5C5 C5C4 C4B4 B4A4 A4A3 A3A2 A2B2 B2C2 C2D2 D2E2 E2E3 E3E4 E4E5 E5D5 D5C5 C5B5 B5B4 B4A4 A4A5 A5B5 B5C5 C5D5 D5E5 E5E4 E4F4 F4F3 F3F2 F2F1 F1F0 F0E0 E0D0 D0D1 D1E1 E1F1 F1F2 F2E2 E2E1 E1F1 F1F0 F0E0 E0E1 E1E2 E2D2 D2D3 D3E3 E3E4 E4F4 F4F5 F5E5 E5D5 D5D4 D4D3 D3D2 D2C2 C2B2 B2B1 B1B0 B0C0 C0C1 C1D1 D1E1 E1E0 E0D0 D0C0 C0B0 B0A0 A0A1 A1A2 A2B2 B2B1 B1B0 B0A0 A0A1 A1A2 A2A3 A3A4 A4B4 B4C4 C4D4 D4D5 D5C5 C5C4 C4D4 D4D5 D5E5 E5F5 F5F4 F4F3 F3E3 E3E2 E2E1 E1D1 D1D0 D0E0 E0E1 E1F1 F1F2 F2E2 E2D2 D2C2 C2C1 C1B1 B1A1 A1A2 A2A3 A3A4 A4B4 B4C4 C4C3 C3B3 B3B4 B4A4 A4A5 A5B5 B5C5 C5C4 C4B4 B4A4 A4A5 A5B5 B5C5 C5C4 C4C3 C3C2 C2C1 C1C0 C0D0 D0D1 D1D2 D2C2 C2C3 C3C4 C4B4 B4B5 B5A5 A5A4 A4B4 B4C4 C4C3 C3C2 C2C1 C1C0 C0D0 D0D1 D1D2 D2C2 C2B2 B2A2 A2A1 A1B1 B1B0 B0A0 A0A1 A1B1 B1B2 B2B3 B3C3 C3D3 D3D4 D4C4 C4B4 B4A4 A4A3 A3A2 A2A1 A1A0 A0B0 B0C0 C0D0 D0D1 D1C1 C1B1 B1A1 A1A0 A0B0 B0B1 B1B2 B2A2 A2A3 A3B3 B3C3 C3D3 D3D4 D4E4 E4E3 E3F3 F3F4 F4E4 E4E3 E3E2 E2F2 F2F3 F3F4 F4E4 E4D4 D4D5 D5E5 E5E4 E4E3 E3D3 D3C3 C3B3 B3B4 B4A4 A4A3 A3B3 B3C3 C3C4 C4C5 C5D5 D5D4 D4D3 D3D2 D2E2 E2E3 E3F3 F3F4 F4E4 E4D4 D4D5 D5E5 E5E4 E4E3 E3E2 E2F2 F2F1 F1F0 F0E0 E0D0 D0D1 D1D2 D2C2 C2B2 B2A2 A2A3 A3A4 A4A5 A5B5 B5C5 C5C4 C4C3 C3D3 D3E3 E3F3 F3F4 F4E4 E4D4 D4C4 C4C5 C5B5 B5A5 A5A4 A4B4 B4B5 B5C5 C5D5 D5D4 D4D3 D3C3 C3C2 C2C1 C1B1 B1B2 B2B3 B3B4 B4B5 B5A5 A5A4 A4B4 B4B5 B5C5 C5C4 C4B4 B4B3 B3C3 C3D3 D3D4 D4D5 D5E5 E5F5 F5F4 F4E4 E4D4 D4D5 D5E5 E5E4 E4D4 D4C4 C4B4 B4B5 B5C5 C5D5 D5E5 E5F5 F5F4 F4F3 F3F2 F2E2 E2D2 D2C2 C2C1 C1C0 C0B0 B0A0 A0A1 A1A2 A2B2 B2C2 C2C3 C3C4 C4D4 D4D3 D3D2 D2D1 D1E1 E1F1 F1F2 F2F3 F3E3 E3E4 E4E5 E5D5 D5D4 D4C4 C4C5 C5B5 B5B4 B4C4 C4C3 C3C2 C2C1 C1D1 D1E1 E1E2 E2F2 F2F3 F3F4 F4F5 F5E5 E5E4 E4E3 E3E2 E2F2 F2F3 F3E3 E3D3 D3C3 C3C4 C4B4 B4A4 A4A5 A5B5 B5C5 C5C4 C4B4 B4B5 B5C5 C5C4 C4C3 C3C2 C2C1 C1C0 C0B0 B0B1 B1C1 C1C0 C0B0 B0B1 B1B2 B2A2 A2A1 A1B1 B1B2 B2B3 B3B4 B4B5 B5C5 C5C4 C4C3 C3C2 C2C1 C1C0 C0D0 D0E0 E0F0 F0F1 F1F2 F2E2 E2E3 E3E4 E4E5 E5D5 D5D4 D4D3 D3D2 D2E2 E2E3 E3F3 F3F4 F4E4 E4D4 D4D3 D3D2 D2C2 C2C3 C3D3 D3D2 D2D1 D1D0 D0C0 C0C1 C1C2 C2C3 C3C4 C4C5 C5D5 D5E5 E5E4 E4D4 D4D5 D5C5 C5C4 C4C3 C3C2 C2D2 D2D1 D1E1 E1F1 F1F2 F2F3 F3F4 F4E4 E4E5 E5D5 D5D4 D4E4 E4E5 E5D5 D5D4 D4D3 D3C3 C3B3 B3A3 A3A4 A4B4 B4C4 C4C5 C5B5 B5A5 A5A4 A4B4 B4B3 B3B2 B2A2 A2A1 A1B1 B1C1 C1D1 D1D0 D0C0 C0B0 B0A0 A0A1 A1A2 A2B2 B2B1 B1A1 A1A2 A2A3 A3B3 B3B2 B2A2 A2A1 A1B1 B1C1 C1D1 D1E1 E1F1 F1F2 F2E2 E2D2 D2C2 C2B2 B2B3 B3B4 B4C4 C4D4 D4E4 E4E3 E3D3 D3D2 D2E2 E2E3 E3E4 E4F4 F4F5 F5E5 E5E4 E4E3 E3D3 D3D2 D2C2 C2C1 C1C0 C0D0 D0E0 E0F0 F0F1 F1E1 E1D1 D1C1 C1C2 C2C3 C3D3 D3D2 D2C2 C2C1 C1B1 B1B0"/>
    </vehicle>
    <vehicle id="101.0" type="car" depart="0.00">
        <route edges="E2E3 E3E4 E4E5 E5D5 D5D4 D4E4 E4E3 E3E2 E2F2 F2F1 F1F0 F0E0 E0E1 E1E2 E2E3 E3E4 E4D4 D4D3 D3D2 D2C2 C2C1 C1D1 D1E1 E1E2 E2D2 D2D3 D3D4 D4D5 D5E5 E5F5 F5F4 F4F3 F3F2 F2F1 F1E1 E1E0 E0F0 F0F1 F1F2 F2F3 F3E3 E3E4 E4F4 F4F3 F3F2 F2F1 F1E1 E1E0 E0F0 F0F1 F1F2 F2E2 E2E1 E1F1 F1F2 F2E2 E2D2 D2C2 C2C3 C3B3 B3A3 A3A2 A2B2 B2C2 C2D2 D2D3 D3D4 D4E4 E4E3 E3D3 D3D2 D2D1 D1D0 D0E0 E0F0 F0F1 F1F2 F2F3 F3F4 F4E4 E4E5 E5D5 D5C5 C5C4 C4B4 B4B5 B5A5 A5A4 A4B4 B4C4 C4C5 C5B5 B5A5 A5A4 A4B4 B4B3 B3A3 A3A2 A2A1 A1A0 A0B0 B0B1 B1B2 B2C2 C2D2 D2D3 D3E3 E3F3 F3F2 F2E2 E2D2 D2D1 D1D0 D0E0 E0F0 F0F1 F1F2 F2F3 F3E3 E3E2 E2E1 E1E0 E0F0 F0F1 F1E1 E1E2 E2E3 E3D3 D3C3 C3C2 C2B2 B2A2 A2A1 A1A0 A0B0 B0C0 C0D0 D0D1 D1E1 E1F1 F1F0 F0E0 E0E1 E1E2 E2E3 E3D3 D3C3 C3B3 B3B4 B4A4 A4A5 A5B5 B5C5 C5D5 D5D4 D4E4 E4E3 E3D3 D3C3 C3B3 B3B4 B4C4 C4C5 C5D5 D5D4 D4E4 E4E5 E5F5 F5F4 F4E4 E4E3 E3E2 E2E1 E1E0 E0D0 D0D1 D1C1 C1C2 C2C3 C3B3 B3A3 A3A2 A2B2 B2C2 C2C1 C1C0 C0D0 D0E0 E0F0 F0F1 F1E1 E1D1 D1C1 C1C0 C0B0 B0A0 A0A1 A1A2 A2B2 B2B3 B3A3 A3A4 A4B4 B4C4 C4D4 D4E4 E4E5 E5D5 D5C5 C5B5 B5A5 A5A4 A4B4 B4C4 C4D4 D4E4 E4E5 E5D5 D5C5 C5B5 B5A5 A5A4 A4A3 A3B3 B3B2 B2B1 B1B0 B0A0 A0A1 A1A2 A2A3 A3A4 A4B4 B4B5 B5C5 C5D5 D5E5 E5F5 F5F4 F4F3 F3E3 E3E4 E4E5 E5D5 D5D4 D4D3 D3C3 C3C2 C2C1 C1B1 B1B2 B2B3 B3A3 A3A2 A2A1 A1B1 B1C1 C1C2 C2C3 C3B3 B3A3 A3A4 A4A5 A5B5 B5C5 C5C4 C4B4 B4B3 B3A3 A3A4 A4B4 B4B5 B5C5 C5D5 D5D4 D4D3 D3E3 E3E2 E2D2 D2D3 D3C3 C3C4 C4C5 C5D5 D5E5 E5E4 E4F4 F4F5 F5E5 E5D5 D5C5 C5B5 B5B4 B4C4 C4C3 C3B3 B3A3 A3A2 A2B2 B2B3 B3B4 B4A4 A4A5 A5B5 B5B4 B4A4 A4A3 A3B3 B3C3 C3D3 D3D4 D4C4 C4B4 B4A4 A4A3 A3B3 B3C3 C3D3 D3D4 D4C4 C4C5 C5B5 B5A5 A5A4 A4A3 A3B3 B3B4 B4B5 B5C5 C5C4 C4B4 B4A4 A4A5 A5B5 B5C5 C5C4 C4C3 C3D3 D3D4 D4D5 D5E5 E5E4 E4E3 E3E2 E2E1 E1E0 E0D0 D0C0 C0C1 C1C2 C2C3 C3D3 D3E3 E3E4 E4E5 E5D5 D5C5 C5B5 B5B4 B4A4 A4A3 A3A2 A2A1 A1B1 B1C1 C1C0 C0B0 B0B1 B1A1 A1A0 A0B0 B0C0 C0C1 C1C2 C2C3 C3D3 D3E3 E3E4 E4D4 D4D3 D3D2 D2D1 D1D0 D0C0 C0B0 B0B1 B1C1 C1C2 C2B2 B2B3 B3C3 C3C2 C2B2 B2A2 A2A3 A3A4 A4B4 B4C4 C4C3 C3C2 C2D2 D2D3 D3D4 D4E4 E4F4 F4F3 F3F2 F2F1 F1F0 F0E0 E0E1 E1E2 E2D2 D2C2 C2B2 B2A2 A2A3 A3B3 B3C3 C3D3 D3E3 E3E2 E2E1 E1D1 D1D0 D0E0 E0E1 E1D1 D1C1 C1C0 C0D0 D0E0 E0F0 F0F1 F1F2 F2E2 E2E3 E3E4 E4E5 E5D5 D5C5 C5C4 C4C3 C3C2 C2C1 C1C0 C0B0 B0B1 B1B2 B2B3 B3C3 C3C2 C2C1 C1B1 B1A1 A1A0 A0B0 B0B1 B1B2 B2A2 A2A3 A3B3 B3C3 C3D3 D3E3 E3E2 E2D2 D2D3 D3C3 C3C2 C2C1 C1D1 D1E1 E1E2 E2E3 E3D3 D3D2 D2D1 D1C1 C1B1 B1B0 B0C0 C0D0 D0D1 D1D2 D2C2 C2B2 B2B3 B3C3 C3C2 C2C1 C1C0 C0D0 D0E0 E0E1 E1E2 E2D2 D2C2 C2C3 C3C4 C4D4 D4D3 D3E3 E3F3 F3F2 F2F1 F1F0 F0E0 E0D0 D0D1 D1C1 C1C2 C2C3 C3C4 C4B4 B4A4 A4A5 A5B5 B5B4 B4B3 B3B2 B2A2 A2A1 A1A0 A0B0 B0B1 B1B2 B2B3 B3A3 A3A4 A4A5 A5B5 B5B4 B4B3 B3A3 A3A4 A4A5 A5B5 B5B4 B4A4 A4A3 A3A2 A2B2 B2B3 B3B4 B4B5 B5A5 A5A4 A4B4 B4B3 B3A3 A3A2 A2A1 A1A0 A0B0 B0C0 C0C1 C1B1 B1A1 A1A2 A2A3 A3B3 B3B4 B4B5 B5C5 C5C4 C4C3 C3B3 B3A3 A3A4 A4A5 A5B5 B5B4 B4B3 B3C3 C3D3 D3E3 E3E2 E2E1 E1E0 E0F0 F0F1 F1F2 F2F3 F3F4 F4E4 E4E5 E5F5 F5F4 F4E4 E4E3 E3E2 E2E1 E1E0 E0D0 D0D1 D1C1 C1C0 C0D0 D0D1 D1E1 E1F1 F1F2 F2E2 E2E1 E1D1 D1D2 D2E2 E2E1 E1F1 F1F2 F2E2 E2D2 D2D3 D3D4 D4C4 C4B4 B4A4 A4A5 A5B5 B5C5 C5C4 C4D4 D4E4 E4E3 E3F3 F3F2 F2F1 F1F0 F0E0 E0E1 E1D1 D1C1 C1C2 C2C3 C3C4 C4D4 D4D5 D5C5 C5C4 C4D4 D4D5 D5C5 C5B5 B5A5 A5A4 A4B4 B4C4 C4D4 D4D3 D3E3 E3E2 E2F2 F2F3 F3E3 E3E4 E4E5 E5F5 F5F4 F4F3 F3E3 E3E2 E2F2 F2F3 F3E3 E3E4 E4D4 D4C4 C4B4 B4B5 B5C5 C5D5 D5E5 E5F5 F5F4 F4F3 F3E3 E3D3 D3C3 C3C4 C4C5 C5B5 B5B4 B4C4 C4D4 D4E4 E4E3 E3D3 D3D2 D2D1 D1C1 C1B1 B1A1 A1A0 A0B0 B0B1 B1C1 C1D1 D1E1 E1E0 E0D0 D0C0 C0B0 B0A0 A0A1 A1A2 A2A3 A3A4 A4A5 A5B5 B5B4 B4A4 A4A5 A5B5 B5C5 C5D5 D5D4 D4C4 C4B4 B4A4 A4A3 A3A2 A2B2 B2B1 B1B0 B0C0 C0D0 D0E0 E0F0 F0F1 F1E1 E1E0 E0D0 D0D1 D1C1 C1B1 B1A1 A1A2 A2B2 B2C2 C2C1 C1C0 C0B0 B0B1 B1A1 A1A0 A0B0 B0C0 C0C1 C1C2 C2C3 C3D3 D3D4 D4D5 D5C5 C5C4 C4D4 D4E4 E4E3 E3E2 E2E1 E1E0 E0F0 F0F1 F1E1 E1D1 D1C1 C1C0 C0D0 D0D1 D1E1 E1E0 E0D0 D0C0 C0B0 B0B1 B1A1 A1A0 A0B0 B0C0 C0D0 D0D1 D1D2 D2C2 C2C1 C1B1 B1A1 A1A0 A0B0 B0B1 B1B2 B2C2 C2D2 D2D1 D1D0 D0E0 E0F0 F0F1 F1E1 E1D1 D1D2 D2D3 D3C3 C3B3 B3B2 B2A2 A2A3 A3B3 B3C3 C3D3 D3D2 D2E2 E2E3 E3E4 E4D4 D4D5 D5E5 E5F5 F5F4 F4E4 E4D4 D4C4 C4C3 C3B3 B3B2 B2B1 B1B0 B0A0 A0A1 A1B1 B1B0 B0A0 A0A1 A1A2 A2B2 B2B1 B1B0 B0C0 C0D0 D0E0 E0F0 F0F1 F1F2 F2E2 E2D2 D2D3 D3C3 C3C2 C2D2 D2E2 E2E3 E3E4 E4E5 E5D5 D5C5 C5B5 B5A5 A5A4 A4B4 B4B5 B5A5 A5A4 A4B4 B4B5 B5C5 C5C4 C4D4 D4D3 D3D2 D2D1 D1E1 E1E2 E2F2 F2F3 F3E3 E3D3 D3D4 D4D5 D5E5 E5F5 F5F4 F4E4 E4E3 E3F3 F3F4 F4F5 F5E5 E5D5 D5C5 C5B5 B5B4 B4B3 B3B2 B2B1 B1B0 B0A0 A0A1 A1B1 B1C1 C1C0 C0D0 D0D1 D1E1 E1E2 E2F2 F2F1 F1F0 F0E0 E0D0 D0C0 C0C1 C1C2 C2D2 D2E2 E2E1 E1E0 E0D0 D0D1 D1D2 D2C2 C2B2 B2B3 B3C3 C3D3 D3D2 D2E2 E2E1 E1D1 D1C1 C1B1 B1A1 A1A2 A2A3 A3A4 A4A5 A5B5 B5C5 C5D5 D5D4 D4D3 D3E3 E3E4 E4F4 F4F5"/>
    </vehicle>
    <vehicle id="102.0" type="car" depart="0.00">
        <route edges="E1F1 F1F2 F2F3 F3E3 E3E4 E4F4 F4F3 F3E3 E3E4 E4E5 E5D5 D5C5 C5B5 B5A5 A5A4 A4B4 B4C4 C4D4 D4E4 E4E5 E5F5 F5F4 F4E4 E4D4 D4C4 C4B4 B4B3 B3B2 B2C2 C2D2 D2D1 D1E1 E1E0 E0D0 D0C0 C0B0 B0B1 B1B2 B2A2 A2A3 A3A4 A4B4 B4B3 B3B2 B2A2 A2A1 A1A0 A0B0 B0B1 B1B2 B2B3 B3B4 B4C4 C4C3 C3D3 D3E3 E3E2 E2F2 F2F1 F1E1 E1E0 E0D0 D0D1 D1D2 D2D3 D3C3 C3C4 C4C5 C5D5 D5D4 D4C4 C4C3 C3C2 C2D2 D2E2 E2F2 F2F1 F1E1 E1D1 D1C1 C1B1 B1A1 A1A2 A2A3 A3A4 A4B4 B4B5 B5C5 C5C4 C4C3 C3C2 C2C1 C1D1 D1D2 D2C2 C2B2 B2B3 B3B4 B4B5 B5A5 A5A4 A4A3 A3A2 A2B2 B2B3 B3A3 A3A2 A2A1 A1B1 B1B2 B2A2 A2A3 A3B3 B3C3 C3C2 C2B2 B2B3 B3B4 B4A4 A4A3 A3A2 A2A1 A1B1 B1C1 C1C0 C0D0 D0E0 E0F0 F0F1 F1E1 E1E0 E0D0 D0D1 D1D2 D2C2 C2B2 B2A2 A2A3 A3B3 B3B4 B4B5 B5A5 A5A4 A4A3 A3A2 A2B2 B2B1 B1A1 A1A0 A0B0 B0C0 C0C1 C1C2 C2B2 B2A2 A2A3 A3B3 B3C3 C3C4 C4C5 C5D5 D5E5 E5F5 F5F4 F4E4 E4D4 D4C4 C4C5 C5D5 D5E5 E5F5 F5F4 F4F3 F3E3 E3E2 E2F2 F2F1 F1F0 F0E0 E0D0 D0D1 D1C1 C1B1 B1B2 B2C2 C2C3 C3C4 C4C5 C5D5 D5E5 E5E4 E4E3 E3E2 E2F2 F2F3 F3E3 E3D3 D3C3 C3B3 B3B4 B4C4 C4C5 C5B5 B5A5 A5A4 A4A3 A3A2 A2B2 B2C2 C2C1 C1C0 C0B0 B0B1 B1C1 C1C0 C0D0 D0D1 D1C1 C1C2 C2D2 D2E2 E2F2 F2F3 F3E3 E3D3 D3D4 D4E4 E4E3 E3F3 F3F4 F4E4 E4E3 E3E2 E2F2 F2F3 F3F4 F4E4 E4E5 E5F5 F5F4 F4E4 E4E5 E5D5 D5C5 C5C4 C4B4 B4B5 B5C5 C5D5 D5E5 E5E4 E4E3 E3F3 F3F2 F2E2 E2E1 E1E0 E0D0 D0D1 D1D2 D2C2 C2C3 C3C4 C4C5 C5B5 B5A5 A5A4 A4A3 A3B3 B3C3 C3C4 C4B4 B4A4 A4A3 A3A2 A2A1 A1A0 A0B0 B0C0 C0D0 D0E0 E0E1 E1F1 F1F0 F0E0 E0E1 E1F1 F1F2 F2E2 E2D2 D2C2 C2B2 B2B3 B3B4 B4C4 C4C3 C3C2 C2C1 C1B1 B1B2 B2A2 A2A1 A1B1 B1B0 B0C0 C0D0 D0E0 E0E1 E1E2 E2E3 E3E4 E4D4 D4D3 D3D2 D2D1 D1D0 D0E0 E0F0 F0F1 F1E1 E1D1 D1D2 D2D3 D3D4 D4E4 E4F4 F4F3 F3F2 F2E2 E2D2 D2C2 C2C3 C3C4 C4B4 B4A4 A4A5 A5B5 B5C5 C5C4 C4C3 C3C2 C2C1 C1C0 C0D0 D0D1 D1D2 D2D3 D3E3 E3F3 F3F2 F2F1 F1F0 F0E0 E0D0 D0D1 D1D2 D2D3 D3D4 D4E4 E4E3 E3E2 E2D2 D2D3 D3D4 D4D5 D5C5 C5C4 C4C3 C3C2 C2C1 C1B1 B1B2 B2B3 B3B4 B4B5 B5C5 C5C4 C4B4 B4B5 B5C5 C5C4 C4D4 D4D3 D3D2 D2D1 D1D0 D0E0 E0E1 E1E2 E2E3 E3E4 E4E5 E5D5 D5C5 C5B5 B5A5 A5A4 A4A3 A3B3 B3C3 C3C2 C2B2 B2A2 A2A3 A3A4 A4B4 B4B3 B3A3 A3A2 A2B2 B2B3 B3B4 B4B5 B5C5 C5C4 C4B4 B4A4 A4A3 A3B3 B3C3 C3C2 C2D2 D2E2 E2F2 F2F3 F3E3 E3D3 D3D2 D2C2 C2C3 C3D3 D3D4 D4D5 D5E5 E5F5 F5F4 F4F3 F3F2 F2F1 F1E1 E1E0 E0D0 D0C0 C0C1 C1B1 B1A1 A1A2 A2B2 B2B3 B3A3 A3A4 A4A5 A5B5 B5C5 C5C4 C4C3 C3B3 B3B2 B2B1 B1B0 B0A0 A0A1 A1A2 A2B2 B2C2 C2D2 D2E2 E2E3 E3D3 D3D4 D4D5 D5C5 C5C4 C4D4 D4D5 D5E5 E5E4 E4F4 F4F5 F5E5 E5D5 D5D4 D4C4 C4C3 C3B3 B3A3 A3A4 A4A5 A5B5 B5B4 B4C4 C4D4 D4D5 D5C5 C5B5 B5A5 A5A4 A4B4 B4C4 C4D4 D4E4 E4F4 F4F3 F3E3 E3D3 D3D2 D2D1 D1C1 C1C2 C2C3 C3C4 C4C5 C5B5 B5B4 B4C4 C4D4 D4D5 D5C5 C5B5 B5A5 A5A4 A4A3 A3B3 B3B4 B4C4 C4D4 D4E4 E4E3 E3D3 D3D4 D4C4 C4B4 B4A4 A4A5 A5B5 B5C5 C5C4 C4D4 D4E4 E4F4 F4F5 F5E5 E5E4 E4F4 F4F3 F3E3 E3E2 E2E1 E1E0 E0F0 F0F1 F1E1 E1E2 E2E3 E3E4 E4F4 F4F3 F3F2 F2E2 E2E3 E3D3 D3C3 C3C4 C4B4 B4A4 A4A5 A5B5 B5B4 B4C4 C4D4 D4E4 E4E3 E3E2 E2D2 D2D3 D3C3 C3C2 C2C1 C1D1 D1E1 E1E0 E0F0 F0F1 F1E1 E1D1 D1D0 D0C0 C0C1 C1B1 B1A1 A1A2 A2B2 B2B1 B1C1 C1D1 D1E1 E1E0 E0D0 D0D1 D1D2 D2D3 D3E3 E3E4 E4E5 E5D5 D5C5 C5C4 C4C3 C3C2 C2C1 C1B1 B1A1 A1A2 A2B2 B2C2 C2C1 C1B1 B1A1 A1A2 A2A3 A3A4 A4B4 B4B5 B5C5 C5D5 D5E5 E5E4 E4D4 D4C4 C4C3 C3C2 C2D2 D2E2 E2E3 E3D3 D3C3 C3B3 B3A3 A3A2 A2B2 B2B3 B3C3 C3C2 C2C1 C1D1 D1D0 D0E0 E0E1 E1D1 D1C1 C1B1 B1A1 A1A0 A0B0 B0B1 B1B2 B2A2 A2A1 A1A0 A0B0 B0C0 C0D0 D0D1 D1D2 D2D3 D3E3 E3E2 E2F2 F2F3 F3F4 F4F5 F5E5 E5E4 E4E3 E3D3 D3D4 D4C4 C4B4 B4A4 A4A3 A3A2 A2A1 A1A0 A0B0 B0B1 B1C1 C1C2 C2B2 B2A2 A2A3 A3B3 B3B4 B4B5 B5C5 C5D5 D5D4 D4E4 E4F4 F4F5 F5E5 E5D5 D5D4 D4C4 C4C3 C3D3 D3E3 E3E4 E4E5 E5D5 D5D4 D4C4 C4C5 C5B5 B5B4 B4A4 A4A3 A3B3 B3B4 B4C4 C4D4 D4E4 E4E5 E5F5 F5F4 F4E4 E4D4 D4C4 C4B4 B4B3 B3A3 A3A4 A4B4 B4C4 C4C5 C5B5 B5B4 B4B3 B3B2 B2A2 A2A3 A3B3 B3C3 C3D3 D3E3 E3F3 F3F4 F4F5 F5E5 E5D5 D5D4 D4C4 C4C3 C3D3 D3E3 E3E4 E4F4 F4F3 F3F2 F2F1 F1F0 F0E0 E0E1 E1E2 E2E3 E3D3 D3C3 C3C4 C4B4 B4A4 A4A5 A5B5 B5B4 B4B3 B3B2 B2B1 B1A1 A1A2 A2A3 A3A4 A4B4 B4C4 C4D4 D4D5 D5C5 C5B5 B5B4 B4C4 C4D4 D4D3 D3D2 D2D1 D1C1 C1C0 C0B0 B0A0 A0A1 A1A2 A2A3 A3A4 A4B4 B4C4 C4C5 C5D5 D5E5 E5E4 E4E3 E3D3 D3D2 D2D1 D1E1 E1F1 F1F0 F0E0 E0D0 D0D1 D1C1 C1C2 C2C3 C3C4 C4B4 B4A4 A4A3 A3A2 A2A1 A1B1 B1C1 C1D1 D1D2 D2D3 D3E3 E3F3 F3F2 F2F1 F1F0 F0E0 E0E1 E1F1 F1F2 F2E2 E2D2 D2C2 C2C1 C1C0 C0B0 B0B1 B1C1 C1C0 C0B0 B0B1 B1A1 A1A2 A2B2 B2B3 B3B4 B4A4 A4A3 A3A2 A2B2 B2C2 C2D2 D2E2 E2E1 E1F1 F1F0 F0E0 E0D0 D0C0 C0C1 C1C2 C2D2 D2D3 D3C3 C3C2 C2C1 C1B1 B1A1 A1A2 A2A3 A3B3 B3C3 C3D3 D3E3 E3F3 F3F2 F2E2 E2D2 D2C2 C2C1 C1B1 B1B0 B0C0 C0D0 D0D1 D1D2 D2D3 D3D4 D4D5 D5C5 C5C4 C4D4 D4D3 D3D2 D2D1 D1E1 E1F1 F1F2 F2E2 E2D2 D2D3 D3E3 E3E4 E4F4 F4F3 F3F2 F2E2 E2D2 D2D1 D1D0 D0E0 E0F0 F0F1 F1E1 E1D1 D1C1 C1B1 B1A1 A1A2 A2A3 A3A4 A4B4 B4B3 B3B2 B2B1 B1C1 C1D1 D1E1 E1E2 E2D2 D2C2 C2C1 C1C0 C0D0 D0E0 E0E1"/>
    </vehicle>
    <vehicle id="103.0" type="car" depart="0.00">