[General]
sim-time-limit = 4000s
network = artery.inet.World

outputvectormanager-class="omnetpp::envir::SqliteOutputVectorManager"
outputscalarmanager-class="omnetpp::envir::SqliteOutputScalarManager"

*.traci.core.version = -1
*.traci.launcher.typename = "PosixLauncher"
*.traci.launcher.sumocfg = "grid.sumo.cfg"

*.radioMedium.pathLossType = "FreeSpacePathLoss"

*.node[*].wlan[*].typename = "VanetNic"
*.node[*].wlan[*].radio.channelNumber = 180
*.node[*].wlan[*].radio.carrierFrequency = 5.9 GHz
*.node[*].wlan[*].radio.transmitter.power = 200 mW
*.node[*].wlan[*].radio.receiver.energyDetection = -85 dBm
*.node[*].wlan[*].radio.receiver.sensitivity = -82 dBm
*.node[*].wlan[*].**.statistic-recording = false

*.node[*].middleware.updateInterval = 0.1s
*.node[*].middleware.datetime = "2018-01-26 09:15:00"
*.node[*].middleware.services = xmldoc("services.xml")
*.node[*].middleware.CA.measureLatency = true
*.node[*].middleware.CA.latency.result-recording-modes = +vector
*.node[*].middleware.CA.transmission.result-recording-modes = all
*.node[*].middleware.CA.reception.result-recording-modes = all

*.node[*].posX.result-recording-modes = vector
*.node[*].posY.result-recording-modes = vector

[Config cam_bsp]
# default values of CaService are according to Basic System Profile

[Config cam_dynamic]
*.node[*].middleware.CA.withDccRestriction = false

[Config cam_fixed]
*.node[*].middleware.CA.withDccRestriction = false
*.node[*].middleware.CA.fixedRate = true
*.node[*].middleware.CA.minInterval = 0.2 s
