<?xml version="1.0" encoding="UTF-8"?>

<!-- generated on Wed Apr  4 08:51:34 2018 by SUMO netgenerate Version 0.31.0
<?xml version="1.0" encoding="UTF-8"?>

<configuration xmlns:xsi="http://www.w3.org/2001/XMLSchema-instance" xsi:noNamespaceSchemaLocation="http://sumo.dlr.de/xsd/netgenerateConfiguration.xsd">

    <grid_network>
        <grid value="true"/>
        <grid.number value="5"/>
        <grid.length value="250"/>
    </grid_network>

    <output>
        <output-file value="grid.net.xml"/>
    </output>

    <processing>
        <no-turnarounds value="true"/>
    </processing>

</configuration>
-->

<net version="0.27" xmlns:xsi="http://www.w3.org/2001/XMLSchema-instance" xsi:noNamespaceSchemaLocation="http://sumo.dlr.de/xsd/net_file.xsd">

    <location netOffset="0.00,0.00" convBoundary="0.00,0.00,1000.00,1000.00" origBoundary="0.00,0.00,1000.00,1000.00" projParameter="+proj=tmerc +ellps=WGS84 +datum=WGS84 +lat_0=51 +lon_0=-2 +units=m +no_defs"/>

    <edge id=":0/0_0" function="internal">
        <lane id=":0/0_0_0" index="0" speed="22.22" length="7.90" shape="-1.65,3.25 -1.34,1.11 -0.42,-0.43 1.11,-1.34 3.25,-1.65"/>
    </edge>
    <edge id=":0/0_1" function="internal">
        <lane id=":0/0_1_0" index="0" speed="22.22" length="2.58" shape="3.25,1.65 2.55,1.75 2.05,2.05 1.75,2.55 1.65,3.25"/>
    </edge>
    <edge id=":0/1_0" function="internal">
        <lane id=":0/1_0_0" index="0" speed="22.22" length="9.50" shape="-1.65,254.75 -1.65,245.25"/>
    </edge>
    <edge id=":0/1_1" function="internal">
        <lane id=":0/1_1_0" index="0" speed="22.22" length="5.28" shape="-1.65,254.75 -1.25,251.95 -0.05,249.95 0.05,249.89"/>
    </edge>
    <edge id=":0/1_6" function="internal">
        <lane id=":0/1_6_0" index="0" speed="22.22" length="5.04" shape="0.05,249.89 1.95,248.75 4.75,248.35"/>
    </edge>
    <edge id=":0/1_2" function="internal">
        <lane id=":0/1_2_0" index="0" speed="22.22" length="5.00" shape="4.75,251.65 3.39,251.84 2.43,252.43 1.84,253.39 1.65,254.75"/>
    </edge>
    <edge id=":0/1_3" function="internal">
        <lane id=":0/1_3_0" index="0" speed="22.22" length="10.32" shape="4.75,251.65 1.95,251.25 -0.05,250.05 -1.25,248.05 -1.65,245.25"/>
    </edge>
    <edge id=":0/1_4" function="internal">
        <lane id=":0/1_4_0" index="0" speed="22.22" length="5.00" shape="1.65,245.25 1.84,246.61 2.42,247.57 3.39,248.16 4.75,248.35"/>
    </edge>
    <edge id=":0/1_5" function="internal">
        <lane id=":0/1_5_0" index="0" speed="22.22" length="9.50" shape="1.65,245.25 1.65,254.75"/>
    </edge>
    <edge id=":0/2_0" function="internal">
        <lane id=":0/2_0_0" index="0" speed="22.22" length="9.50" shape="-1.65,504.75 -1.65,495.25"/>
    </edge>
    <edge id=":0/2_1" function="internal">
        <lane id=":0/2_1_0" index="0" speed="22.22" length="5.28" shape="-1.65,504.75 -1.25,501.95 -0.05,499.95 0.05,499.89"/>
    </edge>
    <edge id=":0/2_6" function="internal">
        <lane id=":0/2_6_0" index="0" speed="22.22" length="5.04" shape="0.05,499.89 1.95,498.75 4.75,498.35"/>
    </edge>
    <edge id=":0/2_2" function="internal">
        <lane id=":0/2_2_0" index="0" speed="22.22" length="5.00" shape="4.75,501.65 3.39,501.84 2.43,502.42 1.84,503.39 1.65,504.75"/>
    </edge>
    <edge id=":0/2_3" function="internal">
        <lane id=":0/2_3_0" index="0" speed="22.22" length="10.32" shape="4.75,501.65 1.95,501.25 -0.05,500.05 -1.25,498.05 -1.65,495.25"/>
    </edge>
    <edge id=":0/2_4" function="internal">
        <lane id=":0/2_4_0" index="0" speed="22.22" length="5.00" shape="1.65,495.25 1.84,496.61 2.42,497.58 3.39,498.16 4.75,498.35"/>
    </edge>
    <edge id=":0/2_5" function="internal">
        <lane id=":0/2_5_0" index="0" speed="22.22" length="9.50" shape="1.65,495.25 1.65,504.75"/>
    </edge>
    <edge id=":0/3_0" function="internal">
        <lane id=":0/3_0_0" index="0" speed="22.22" length="9.50" shape="-1.65,754.75 -1.65,745.25"/>
    </edge>
    <edge id=":0/3_1" function="internal">
        <lane id=":0/3_1_0" index="0" speed="22.22" length="5.28" shape="-1.65,754.75 -1.25,751.95 -0.05,749.95 0.05,749.89"/>
    </edge>
    <edge id=":0/3_6" function="internal">
        <lane id=":0/3_6_0" index="0" speed="22.22" length="5.04" shape="0.05,749.89 1.95,748.75 4.75,748.35"/>
    </edge>
    <edge id=":0/3_2" function="internal">
        <lane id=":0/3_2_0" index="0" speed="22.22" length="5.00" shape="4.75,751.65 3.39,751.84 2.43,752.42 1.84,753.39 1.65,754.75"/>
    </edge>
    <edge id=":0/3_3" function="internal">
        <lane id=":0/3_3_0" index="0" speed="22.22" length="10.32" shape="4.75,751.65 1.95,751.25 -0.05,750.05 -1.25,748.05 -1.65,745.25"/>
    </edge>
    <edge id=":0/3_4" function="internal">
        <lane id=":0/3_4_0" index="0" speed="22.22" length="5.00" shape="1.65,745.25 1.84,746.61 2.42,747.57 3.39,748.16 4.75,748.35"/>
    </edge>
    <edge id=":0/3_5" function="internal">
        <lane id=":0/3_5_0" index="0" speed="22.22" length="9.50" shape="1.65,745.25 1.65,754.75"/>
    </edge>
    <edge id=":0/4_0" function="internal">
        <lane id=":0/4_0_0" index="0" speed="22.22" length="7.90" shape="3.25,1001.65 1.11,1001.34 -0.43,1000.42 -1.34,998.89 -1.65,996.75"/>
    </edge>
    <edge id=":0/4_1" function="internal">
        <lane id=":0/4_1_0" index="0" speed="22.22" length="2.58" shape="1.65,996.75 1.75,997.45 2.05,997.95 2.55,998.25 3.25,998.35"/>
    </edge>
    <edge id=":1/0_0" function="internal">
        <lane id=":1/0_0_0" index="0" speed="22.22" length="5.00" shape="248.35,4.75 248.16,3.39 247.57,2.43 246.61,1.84 245.25,1.65"/>
    </edge>
    <edge id=":1/0_1" function="internal">
        <lane id=":1/0_1_0" index="0" speed="22.22" length="10.32" shape="248.35,4.75 248.75,1.95 249.95,-0.05 251.95,-1.25 254.75,-1.65"/>
    </edge>
    <edge id=":1/0_2" function="internal">
        <lane id=":1/0_2_0" index="0" speed="22.22" length="5.00" shape="254.75,1.65 253.39,1.84 252.42,2.42 251.84,3.39 251.65,4.75"/>
    </edge>
    <edge id=":1/0_3" function="internal">
        <lane id=":1/0_3_0" index="0" speed="22.22" length="9.50" shape="254.75,1.65 245.25,1.65"/>
    </edge>
    <edge id=":1/0_4" function="internal">
        <lane id=":1/0_4_0" index="0" speed="22.22" length="9.50" shape="245.25,-1.65 254.75,-1.65"/>
    </edge>
    <edge id=":1/0_5" function="internal">
        <lane id=":1/0_5_0" index="0" speed="22.22" length="5.28" shape="245.25,-1.65 248.05,-1.25 250.05,-0.05 250.11,0.05"/>
    </edge>
    <edge id=":1/0_6" function="internal">
        <lane id=":1/0_6_0" index="0" speed="22.22" length="5.04" shape="250.11,0.05 251.25,1.95 251.65,4.75"/>
    </edge>
    <edge id=":1/1_0" function="internal">
        <lane id=":1/1_0_0" index="0" speed="22.22" length="5.00" shape="248.35,254.75 248.16,253.39 247.57,252.42 246.61,251.84 245.25,251.65"/>
    </edge>
    <edge id=":1/1_1" function="internal">
        <lane id=":1/1_1_0" index="0" speed="22.22" length="9.50" shape="248.35,254.75 248.35,245.25"/>
    </edge>
    <edge id=":1/1_2" function="internal">
        <lane id=":1/1_2_0" index="0" speed="22.22" length="5.28" shape="248.35,254.75 248.75,251.95 249.95,249.95 250.05,249.89"/>
    </edge>
    <edge id=":1/1_12" function="internal">
        <lane id=":1/1_12_0" index="0" speed="22.22" length="5.04" shape="250.05,249.89 251.95,248.75 254.75,248.35"/>
    </edge>
    <edge id=":1/1_3" function="internal">
        <lane id=":1/1_3_0" index="0" speed="22.22" length="5.00" shape="254.75,251.65 253.39,251.84 252.42,252.43 251.84,253.39 251.65,254.75"/>
    </edge>
    <edge id=":1/1_4" function="internal">
        <lane id=":1/1_4_0" index="0" speed="22.22" length="9.50" shape="254.75,251.65 245.25,251.65"/>
    </edge>
    <edge id=":1/1_5" function="internal">
        <lane id=":1/1_5_0" index="0" speed="22.22" length="10.32" shape="254.75,251.65 251.95,251.25 249.95,250.05 248.75,248.05 248.35,245.25"/>
    </edge>
    <edge id=":1/1_6" function="internal">
        <lane id=":1/1_6_0" index="0" speed="22.22" length="5.00" shape="251.65,245.25 251.84,246.61 252.43,247.58 253.39,248.16 254.75,248.35"/>
    </edge>
    <edge id=":1/1_7" function="internal">
        <lane id=":1/1_7_0" index="0" speed="22.22" length="9.50" shape="251.65,245.25 251.65,254.75"/>
    </edge>
    <edge id=":1/1_8" function="internal">
        <lane id=":1/1_8_0" index="0" speed="22.22" length="5.28" shape="251.65,245.25 251.25,248.05 250.05,250.05 249.95,250.11"/>
    </edge>
    <edge id=":1/1_13" function="internal">
        <lane id=":1/1_13_0" index="0" speed="22.22" length="5.04" shape="249.95,250.11 248.05,251.25 245.25,251.65"/>
    </edge>
    <edge id=":1/1_9" function="internal">
        <lane id=":1/1_9_0" index="0" speed="22.22" length="5.00" shape="245.25,248.35 246.61,248.16 247.58,247.57 248.16,246.61 248.35,245.25"/>
    </edge>
    <edge id=":1/1_10" function="internal">
        <lane id=":1/1_10_0" index="0" speed="22.22" length="9.50" shape="245.25,248.35 254.75,248.35"/>
    </edge>
    <edge id=":1/1_11" function="internal">
        <lane id=":1/1_11_0" index="0" speed="22.22" length="10.32" shape="245.25,248.35 248.05,248.75 250.05,249.95 251.25,251.95 251.65,254.75"/>
    </edge>
    <edge id=":1/2_0" function="internal">
        <lane id=":1/2_0_0" index="0" speed="22.22" length="5.00" shape="248.35,504.75 248.16,503.39 247.57,502.42 246.61,501.84 245.25,501.65"/>
    </edge>
    <edge id=":1/2_1" function="internal">
        <lane id=":1/2_1_0" index="0" speed="22.22" length="9.50" shape="248.35,504.75 248.35,495.25"/>
    </edge>
    <edge id=":1/2_2" function="internal">
        <lane id=":1/2_2_0" index="0" speed="22.22" length="5.28" shape="248.35,504.75 248.75,501.95 249.95,499.95 250.05,499.89"/>
    </edge>
    <edge id=":1/2_12" function="internal">
        <lane id=":1/2_12_0" index="0" speed="22.22" length="5.04" shape="250.05,499.89 251.95,498.75 254.75,498.35"/>
    </edge>
    <edge id=":1/2_3" function="internal">
        <lane id=":1/2_3_0" index="0" speed="22.22" length="5.00" shape="254.75,501.65 253.39,501.84 252.42,502.42 251.84,503.39 251.65,504.75"/>
    </edge>
    <edge id=":1/2_4" function="internal">
        <lane id=":1/2_4_0" index="0" speed="22.22" length="9.50" shape="254.75,501.65 245.25,501.65"/>
    </edge>
    <edge id=":1/2_5" function="internal">
        <lane id=":1/2_5_0" index="0" speed="22.22" length="10.32" shape="254.75,501.65 251.95,501.25 249.95,500.05 248.75,498.05 248.35,495.25"/>
    </edge>
    <edge id=":1/2_6" function="internal">
        <lane id=":1/2_6_0" index="0" speed="22.22" length="5.00" shape="251.65,495.25 251.84,496.61 252.43,497.58 253.39,498.16 254.75,498.35"/>
    </edge>
    <edge id=":1/2_7" function="internal">
        <lane id=":1/2_7_0" index="0" speed="22.22" length="9.50" shape="251.65,495.25 251.65,504.75"/>
    </edge>
    <edge id=":1/2_8" function="internal">
        <lane id=":1/2_8_0" index="0" speed="22.22" length="5.28" shape="251.65,495.25 251.25,498.05 250.05,500.05 249.95,500.11"/>
    </edge>
    <edge id=":1/2_13" function="internal">
        <lane id=":1/2_13_0" index="0" speed="22.22" length="5.04" shape="249.95,500.11 248.05,501.25 245.25,501.65"/>
    </edge>
    <edge id=":1/2_9" function="internal">
        <lane id=":1/2_9_0" index="0" speed="22.22" length="5.00" shape="245.25,498.35 246.61,498.16 247.58,497.58 248.16,496.61 248.35,495.25"/>
    </edge>
    <edge id=":1/2_10" function="internal">
        <lane id=":1/2_10_0" index="0" speed="22.22" length="9.50" shape="245.25,498.35 254.75,498.35"/>
    </edge>
    <edge id=":1/2_11" function="internal">
        <lane id=":1/2_11_0" index="0" speed="22.22" length="10.32" shape="245.25,498.35 248.05,498.75 250.05,499.95 251.25,501.95 251.65,504.75"/>
    </edge>
    <edge id=":1/3_0" function="internal">
        <lane id=":1/3_0_0" index="0" speed="22.22" length="5.00" shape="248.35,754.75 248.16,753.39 247.57,752.43 246.61,751.84 245.25,751.65"/>
    </edge>
    <edge id=":1/3_1" function="internal">
        <lane id=":1/3_1_0" index="0" speed="22.22" length="9.50" shape="248.35,754.75 248.35,745.25"/>
    </edge>
    <edge id=":1/3_2" function="internal">
        <lane id=":1/3_2_0" index="0" speed="22.22" length="5.28" shape="248.35,754.75 248.75,751.95 249.95,749.95 250.05,749.89"/>
    </edge>
    <edge id=":1/3_12" function="internal">
        <lane id=":1/3_12_0" index="0" speed="22.22" length="5.04" shape="250.05,749.89 251.95,748.75 254.75,748.35"/>
    </edge>
    <edge id=":1/3_3" function="internal">
        <lane id=":1/3_3_0" index="0" speed="22.22" length="5.00" shape="254.75,751.65 253.39,751.84 252.42,752.42 251.84,753.39 251.65,754.75"/>
    </edge>
    <edge id=":1/3_4" function="internal">
        <lane id=":1/3_4_0" index="0" speed="22.22" length="9.50" shape="254.75,751.65 245.25,751.65"/>
    </edge>
    <edge id=":1/3_5" function="internal">
        <lane id=":1/3_5_0" index="0" speed="22.22" length="10.32" shape="254.75,751.65 251.95,751.25 249.95,750.05 248.75,748.05 248.35,745.25"/>
    </edge>
    <edge id=":1/3_6" function="internal">
        <lane id=":1/3_6_0" index="0" speed="22.22" length="5.00" shape="251.65,745.25 251.84,746.61 252.43,747.57 253.39,748.16 254.75,748.35"/>
    </edge>
    <edge id=":1/3_7" function="internal">
        <lane id=":1/3_7_0" index="0" speed="22.22" length="9.50" shape="251.65,745.25 251.65,754.75"/>
    </edge>
    <edge id=":1/3_8" function="internal">
        <lane id=":1/3_8_0" index="0" speed="22.22" length="5.28" shape="251.65,745.25 251.25,748.05 250.05,750.05 249.95,750.11"/>
    </edge>
    <edge id=":1/3_13" function="internal">
        <lane id=":1/3_13_0" index="0" speed="22.22" length="5.04" shape="249.95,750.11 248.05,751.25 245.25,751.65"/>
    </edge>
    <edge id=":1/3_9" function="internal">
        <lane id=":1/3_9_0" index="0" speed="22.22" length="5.00" shape="245.25,748.35 246.61,748.16 247.58,747.58 248.16,746.61 248.35,745.25"/>
    </edge>
    <edge id=":1/3_10" function="internal">
        <lane id=":1/3_10_0" index="0" speed="22.22" length="9.50" shape="245.25,748.35 254.75,748.35"/>
    </edge>
    <edge id=":1/3_11" function="internal">
        <lane id=":1/3_11_0" index="0" speed="22.22" length="10.32" shape="245.25,748.35 248.05,748.75 250.05,749.95 251.25,751.95 251.65,754.75"/>
    </edge>
    <edge id=":1/4_0" function="internal">
        <lane id=":1/4_0_0" index="0" speed="22.22" length="9.50" shape="254.75,1001.65 245.25,1001.65"/>
    </edge>
    <edge id=":1/4_1" function="internal">
        <lane id=":1/4_1_0" index="0" speed="22.22" length="5.28" shape="254.75,1001.65 251.95,1001.25 249.95,1000.05 249.89,999.95"/>
    </edge>
    <edge id=":1/4_6" function="internal">
        <lane id=":1/4_6_0" index="0" speed="22.22" length="5.04" shape="249.89,999.95 248.75,998.05 248.35,995.25"/>
    </edge>
    <edge id=":1/4_2" function="internal">
        <lane id=":1/4_2_0" index="0" speed="22.22" length="5.00" shape="251.65,995.25 251.84,996.61 252.43,997.57 253.39,998.16 254.75,998.35"/>
    </edge>
    <edge id=":1/4_3" function="internal">
        <lane id=":1/4_3_0" index="0" speed="22.22" length="10.32" shape="251.65,995.25 251.25,998.05 250.05,1000.05 248.05,1001.25 245.25,1001.65"/>
    </edge>
    <edge id=":1/4_4" function="internal">
        <lane id=":1/4_4_0" index="0" speed="22.22" length="5.00" shape="245.25,998.35 246.61,998.16 247.57,997.58 248.16,996.61 248.35,995.25"/>
    </edge>
    <edge id=":1/4_5" function="internal">
        <lane id=":1/4_5_0" index="0" speed="22.22" length="9.50" shape="245.25,998.35 254.75,998.35"/>
    </edge>
    <edge id=":2/0_0" function="internal">
        <lane id=":2/0_0_0" index="0" speed="22.22" length="5.00" shape="498.35,4.75 498.16,3.39 497.58,2.43 496.61,1.84 495.25,1.65"/>
    </edge>
    <edge id=":2/0_1" function="internal">
        <lane id=":2/0_1_0" index="0" speed="22.22" length="10.32" shape="498.35,4.75 498.75,1.95 499.95,-0.05 501.95,-1.25 504.75,-1.65"/>
    </edge>
    <edge id=":2/0_2" function="internal">
        <lane id=":2/0_2_0" index="0" speed="22.22" length="5.00" shape="504.75,1.65 503.39,1.84 502.42,2.42 501.84,3.39 501.65,4.75"/>
    </edge>
    <edge id=":2/0_3" function="internal">
        <lane id=":2/0_3_0" index="0" speed="22.22" length="9.50" shape="504.75,1.65 495.25,1.65"/>
    </edge>
    <edge id=":2/0_4" function="internal">
        <lane id=":2/0_4_0" index="0" speed="22.22" length="9.50" shape="495.25,-1.65 504.75,-1.65"/>
    </edge>
    <edge id=":2/0_5" function="internal">
        <lane id=":2/0_5_0" index="0" speed="22.22" length="5.28" shape="495.25,-1.65 498.05,-1.25 500.05,-0.05 500.11,0.05"/>
    </edge>
    <edge id=":2/0_6" function="internal">
        <lane id=":2/0_6_0" index="0" speed="22.22" length="5.04" shape="500.11,0.05 501.25,1.95 501.65,4.75"/>
    </edge>
    <edge id=":2/1_0" function="internal">
        <lane id=":2/1_0_0" index="0" speed="22.22" length="5.00" shape="498.35,254.75 498.16,253.39 497.58,252.42 496.61,251.84 495.25,251.65"/>
    </edge>
    <edge id=":2/1_1" function="internal">
        <lane id=":2/1_1_0" index="0" speed="22.22" length="9.50" shape="498.35,254.75 498.35,245.25"/>
    </edge>
    <edge id=":2/1_2" function="internal">
        <lane id=":2/1_2_0" index="0" speed="22.22" length="5.28" shape="498.35,254.75 498.75,251.95 499.95,249.95 500.05,249.89"/>
    </edge>
    <edge id=":2/1_12" function="internal">
        <lane id=":2/1_12_0" index="0" speed="22.22" length="5.04" shape="500.05,249.89 501.95,248.75 504.75,248.35"/>
    </edge>
    <edge id=":2/1_3" function="internal">
        <lane id=":2/1_3_0" index="0" speed="22.22" length="5.00" shape="504.75,251.65 503.39,251.84 502.42,252.43 501.84,253.39 501.65,254.75"/>
    </edge>
    <edge id=":2/1_4" function="internal">
        <lane id=":2/1_4_0" index="0" speed="22.22" length="9.50" shape="504.75,251.65 495.25,251.65"/>
    </edge>
    <edge id=":2/1_5" function="internal">
        <lane id=":2/1_5_0" index="0" speed="22.22" length="10.32" shape="504.75,251.65 501.95,251.25 499.95,250.05 498.75,248.05 498.35,245.25"/>
    </edge>
    <edge id=":2/1_6" function="internal">
        <lane id=":2/1_6_0" index="0" speed="22.22" length="5.00" shape="501.65,245.25 501.84,246.61 502.42,247.58 503.39,248.16 504.75,248.35"/>
    </edge>
    <edge id=":2/1_7" function="internal">
        <lane id=":2/1_7_0" index="0" speed="22.22" length="9.50" shape="501.65,245.25 501.65,254.75"/>
    </edge>
    <edge id=":2/1_8" function="internal">
        <lane id=":2/1_8_0" index="0" speed="22.22" length="5.28" shape="501.65,245.25 501.25,248.05 500.05,250.05 499.95,250.11"/>
    </edge>
    <edge id=":2/1_13" function="internal">
        <lane id=":2/1_13_0" index="0" speed="22.22" length="5.04" shape="499.95,250.11 498.05,251.25 495.25,251.65"/>
    </edge>
    <edge id=":2/1_9" function="internal">
        <lane id=":2/1_9_0" index="0" speed="22.22" length="5.00" shape="495.25,248.35 496.61,248.16 497.58,247.57 498.16,246.61 498.35,245.25"/>
    </edge>
    <edge id=":2/1_10" function="internal">
        <lane id=":2/1_10_0" index="0" speed="22.22" length="9.50" shape="495.25,248.35 504.75,248.35"/>
    </edge>
    <edge id=":2/1_11" function="internal">
        <lane id=":2/1_11_0" index="0" speed="22.22" length="10.32" shape="495.25,248.35 498.05,248.75 500.05,249.95 501.25,251.95 501.65,254.75"/>
    </edge>
    <edge id=":2/2_0" function="internal">
        <lane id=":2/2_0_0" index="0" speed="22.22" length="5.00" shape="498.35,504.75 498.16,503.39 497.58,502.42 496.61,501.84 495.25,501.65"/>
    </edge>
    <edge id=":2/2_1" function="internal">
        <lane id=":2/2_1_0" index="0" speed="22.22" length="9.50" shape="498.35,504.75 498.35,495.25"/>
    </edge>
    <edge id=":2/2_2" function="internal">
        <lane id=":2/2_2_0" index="0" speed="22.22" length="5.28" shape="498.35,504.75 498.75,501.95 499.95,499.95 500.05,499.89"/>
    </edge>
    <edge id=":2/2_12" function="internal">
        <lane id=":2/2_12_0" index="0" speed="22.22" length="5.04" shape="500.05,499.89 501.95,498.75 504.75,498.35"/>
    </edge>
    <edge id=":2/2_3" function="internal">
        <lane id=":2/2_3_0" index="0" speed="22.22" length="5.00" shape="504.75,501.65 503.39,501.84 502.42,502.42 501.84,503.39 501.65,504.75"/>
    </edge>
    <edge id=":2/2_4" function="internal">
        <lane id=":2/2_4_0" index="0" speed="22.22" length="9.50" shape="504.75,501.65 495.25,501.65"/>
    </edge>
    <edge id=":2/2_5" function="internal">
        <lane id=":2/2_5_0" index="0" speed="22.22" length="10.32" shape="504.75,501.65 501.95,501.25 499.95,500.05 498.75,498.05 498.35,495.25"/>
    </edge>
    <edge id=":2/2_6" function="internal">
        <lane id=":2/2_6_0" index="0" speed="22.22" length="5.00" shape="501.65,495.25 501.84,496.61 502.42,497.58 503.39,498.16 504.75,498.35"/>
    </edge>
    <edge id=":2/2_7" function="internal">
        <lane id=":2/2_7_0" index="0" speed="22.22" length="9.50" shape="501.65,495.25 501.65,504.75"/>
    </edge>
    <edge id=":2/2_8" function="internal">
        <lane id=":2/2_8_0" index="0" speed="22.22" length="5.28" shape="501.65,495.25 501.25,498.05 500.05,500.05 499.95,500.11"/>
    </edge>
    <edge id=":2/2_13" function="internal">
        <lane id=":2/2_13_0" index="0" speed="22.22" length="5.04" shape="499.95,500.11 498.05,501.25 495.25,501.65"/>
    </edge>
    <edge id=":2/2_9" function="internal">
        <lane id=":2/2_9_0" index="0" speed="22.22" length="5.00" shape="495.25,498.35 496.61,498.16 497.58,497.58 498.16,496.61 498.35,495.25"/>
    </edge>
    <edge id=":2/2_10" function="internal">
        <lane id=":2/2_10_0" index="0" speed="22.22" length="9.50" shape="495.25,498.35 504.75,498.35"/>
    </edge>
    <edge id=":2/2_11" function="internal">
        <lane id=":2/2_11_0" index="0" speed="22.22" length="10.32" shape="495.25,498.35 498.05,498.75 500.05,499.95 501.25,501.95 501.65,504.75"/>
    </edge>
    <edge id=":2/3_0" function="internal">
        <lane id=":2/3_0_0" index="0" speed="22.22" length="5.00" shape="498.35,754.75 498.16,753.39 497.58,752.43 496.61,751.84 495.25,751.65"/>
    </edge>
    <edge id=":2/3_1" function="internal">
        <lane id=":2/3_1_0" index="0" speed="22.22" length="9.50" shape="498.35,754.75 498.35,745.25"/>
    </edge>
    <edge id=":2/3_2" function="internal">
        <lane id=":2/3_2_0" index="0" speed="22.22" length="5.28" shape="498.35,754.75 498.75,751.95 499.95,749.95 500.05,749.89"/>
    </edge>
    <edge id=":2/3_12" function="internal">
        <lane id=":2/3_12_0" index="0" speed="22.22" length="5.04" shape="500.05,749.89 501.95,748.75 504.75,748.35"/>
    </edge>
    <edge id=":2/3_3" function="internal">
        <lane id=":2/3_3_0" index="0" speed="22.22" length="5.00" shape="504.75,751.65 503.39,751.84 502.42,752.42 501.84,753.39 501.65,754.75"/>
    </edge>
    <edge id=":2/3_4" function="internal">
        <lane id=":2/3_4_0" index="0" speed="22.22" length="9.50" shape="504.75,751.65 495.25,751.65"/>
    </edge>
    <edge id=":2/3_5" function="internal">
        <lane id=":2/3_5_0" index="0" speed="22.22" length="10.32" shape="504.75,751.65 501.95,751.25 499.95,750.05 498.75,748.05 498.35,745.25"/>
    </edge>
    <edge id=":2/3_6" function="internal">
        <lane id=":2/3_6_0" index="0" speed="22.22" length="5.00" shape="501.65,745.25 501.84,746.61 502.42,747.57 503.39,748.16 504.75,748.35"/>
    </edge>
    <edge id=":2/3_7" function="internal">
        <lane id=":2/3_7_0" index="0" speed="22.22" length="9.50" shape="501.65,745.25 501.65,754.75"/>
    </edge>
    <edge id=":2/3_8" function="internal">
        <lane id=":2/3_8_0" index="0" speed="22.22" length="5.28" shape="501.65,745.25 501.25,748.05 500.05,750.05 499.95,750.11"/>
    </edge>
    <edge id=":2/3_13" function="internal">
        <lane id=":2/3_13_0" index="0" speed="22.22" length="5.04" shape="499.95,750.11 498.05,751.25 495.25,751.65"/>
    </edge>
    <edge id=":2/3_9" function="internal">
        <lane id=":2/3_9_0" index="0" speed="22.22" length="5.00" shape="495.25,748.35 496.61,748.16 497.58,747.58 498.16,746.61 498.35,745.25"/>
    </edge>
    <edge id=":2/3_10" function="internal">
        <lane id=":2/3_10_0" index="0" speed="22.22" length="9.50" shape="495.25,748.35 504.75,748.35"/>
    </edge>
    <edge id=":2/3_11" function="internal">
        <lane id=":2/3_11_0" index="0" speed="22.22" length="10.32" shape="495.25,748.35 498.05,748.75 500.05,749.95 501.25,751.95 501.65,754.75"/>
    </edge>
    <edge id=":2/4_0" function="internal">
        <lane id=":2/4_0_0" index="0" speed="22.22" length="9.50" shape="504.75,1001.65 495.25,1001.65"/>
    </edge>
    <edge id=":2/4_1" function="internal">
        <lane id=":2/4_1_0" index="0" speed="22.22" length="5.28" shape="504.75,1001.65 501.95,1001.25 499.95,1000.05 499.89,999.95"/>
    </edge>
    <edge id=":2/4_6" function="internal">
        <lane id=":2/4_6_0" index="0" speed="22.22" length="5.04" shape="499.89,999.95 498.75,998.05 498.35,995.25"/>
    </edge>
    <edge id=":2/4_2" function="internal">
        <lane id=":2/4_2_0" index="0" speed="22.22" length="5.00" shape="501.65,995.25 501.84,996.61 502.42,997.57 503.39,998.16 504.75,998.35"/>
    </edge>
    <edge id=":2/4_3" function="internal">
        <lane id=":2/4_3_0" index="0" speed="22.22" length="10.32" shape="501.65,995.25 501.25,998.05 500.05,1000.05 498.05,1001.25 495.25,1001.65"/>
    </edge>
    <edge id=":2/4_4" function="internal">
        <lane id=":2/4_4_0" index="0" speed="22.22" length="5.00" shape="495.25,998.35 496.61,998.16 497.58,997.58 498.16,996.61 498.35,995.25"/>
    </edge>
    <edge id=":2/4_5" function="internal">
        <lane id=":2/4_5_0" index="0" speed="22.22" length="9.50" shape="495.25,998.35 504.75,998.35"/>
    </edge>
    <edge id=":3/0_0" function="internal">
        <lane id=":3/0_0_0" index="0" speed="22.22" length="5.00" shape="748.35,4.75 748.16,3.39 747.58,2.43 746.61,1.84 745.25,1.65"/>
    </edge>
    <edge id=":3/0_1" function="internal">
        <lane id=":3/0_1_0" index="0" speed="22.22" length="10.32" shape="748.35,4.75 748.75,1.95 749.95,-0.05 751.95,-1.25 754.75,-1.65"/>
    </edge>
    <edge id=":3/0_2" function="internal">
        <lane id=":3/0_2_0" index="0" speed="22.22" length="5.00" shape="754.75,1.65 753.39,1.84 752.43,2.42 751.84,3.39 751.65,4.75"/>
    </edge>
    <edge id=":3/0_3" function="internal">
        <lane id=":3/0_3_0" index="0" speed="22.22" length="9.50" shape="754.75,1.65 745.25,1.65"/>
    </edge>
    <edge id=":3/0_4" function="internal">
        <lane id=":3/0_4_0" index="0" speed="22.22" length="9.50" shape="745.25,-1.65 754.75,-1.65"/>
    </edge>
    <edge id=":3/0_5" function="internal">
        <lane id=":3/0_5_0" index="0" speed="22.22" length="5.28" shape="745.25,-1.65 748.05,-1.25 750.05,-0.05 750.11,0.05"/>
    </edge>
    <edge id=":3/0_6" function="internal">
        <lane id=":3/0_6_0" index="0" speed="22.22" length="5.04" shape="750.11,0.05 751.25,1.95 751.65,4.75"/>
    </edge>
    <edge id=":3/1_0" function="internal">
        <lane id=":3/1_0_0" index="0" speed="22.22" length="5.00" shape="748.35,254.75 748.16,253.39 747.58,252.42 746.61,251.84 745.25,251.65"/>
    </edge>
    <edge id=":3/1_1" function="internal">
        <lane id=":3/1_1_0" index="0" speed="22.22" length="9.50" shape="748.35,254.75 748.35,245.25"/>
    </edge>
    <edge id=":3/1_2" function="internal">
        <lane id=":3/1_2_0" index="0" speed="22.22" length="5.28" shape="748.35,254.75 748.75,251.95 749.95,249.95 750.05,249.89"/>
    </edge>
    <edge id=":3/1_12" function="internal">
        <lane id=":3/1_12_0" index="0" speed="22.22" length="5.04" shape="750.05,249.89 751.95,248.75 754.75,248.35"/>
    </edge>
    <edge id=":3/1_3" function="internal">
        <lane id=":3/1_3_0" index="0" speed="22.22" length="5.00" shape="754.75,251.65 753.39,251.84 752.43,252.43 751.84,253.39 751.65,254.75"/>
    </edge>
    <edge id=":3/1_4" function="internal">
        <lane id=":3/1_4_0" index="0" speed="22.22" length="9.50" shape="754.75,251.65 745.25,251.65"/>
    </edge>
    <edge id=":3/1_5" function="internal">
        <lane id=":3/1_5_0" index="0" speed="22.22" length="10.32" shape="754.75,251.65 751.95,251.25 749.95,250.05 748.75,248.05 748.35,245.25"/>
    </edge>
    <edge id=":3/1_6" function="internal">
        <lane id=":3/1_6_0" index="0" speed="22.22" length="5.00" shape="751.65,245.25 751.84,246.61 752.42,247.58 753.39,248.16 754.75,248.35"/>
    </edge>
    <edge id=":3/1_7" function="internal">
        <lane id=":3/1_7_0" index="0" speed="22.22" length="9.50" shape="751.65,245.25 751.65,254.75"/>
    </edge>
    <edge id=":3/1_8" function="internal">
        <lane id=":3/1_8_0" index="0" speed="22.22" length="5.28" shape="751.65,245.25 751.25,248.05 750.05,250.05 749.95,250.11"/>
    </edge>
    <edge id=":3/1_13" function="internal">
        <lane id=":3/1_13_0" index="0" speed="22.22" length="5.04" shape="749.95,250.11 748.05,251.25 745.25,251.65"/>
    </edge>
    <edge id=":3/1_9" function="internal">
        <lane id=":3/1_9_0" index="0" speed="22.22" length="5.00" shape="745.25,248.35 746.61,248.16 747.57,247.57 748.16,246.61 748.35,245.25"/>
    </edge>
    <edge id=":3/1_10" function="internal">
        <lane id=":3/1_10_0" index="0" speed="22.22" length="9.50" shape="745.25,248.35 754.75,248.35"/>
    </edge>
    <edge id=":3/1_11" function="internal">
        <lane id=":3/1_11_0" index="0" speed="22.22" length="10.32" shape="745.25,248.35 748.05,248.75 750.05,249.95 751.25,251.95 751.65,254.75"/>
    </edge>
    <edge id=":3/2_0" function="internal">
        <lane id=":3/2_0_0" index="0" speed="22.22" length="5.00" shape="748.35,504.75 748.16,503.39 747.58,502.42 746.61,501.84 745.25,501.65"/>
    </edge>
    <edge id=":3/2_1" function="internal">