<?xml version="1.0" encoding="UTF-8"?>

<!-- generated on Wed Apr  4 17:06:23 2018 by SUMO duarouter Version 0.31.0
<?xml version="1.0" encoding="UTF-8"?>

<configuration xmlns:xsi="http://www.w3.org/2001/XMLSchema-instance" xsi:noNamespaceSchemaLocation="http://sumo.dlr.de/xsd/duarouterConfiguration.xsd">

    <input>
        <net-file value="grid.net.xml"/>
        <route-files value="trips.trips.xml"/>
    </input>

    <output>
        <output-file value="grid.rou.xml"/>
    </output>

    <processing>
        <ignore-errors value="true"/>
    </processing>

    <time>
        <begin value="0"/>
        <end value="40.0"/>
    </time>

    <report>
        <no-warnings value="true"/>
        <no-step-log value="true"/>
    </report>

</configuration>
-->

<routes xmlns:xsi="http://www.w3.org/2001/XMLSchema-instance" xsi:noNamespaceSchemaLocation="http://sumo.dlr.de/xsd/routes_file.xsd">
    <vehicle id="0" depart="0.00">
        <route edges="0/3to1/3 1/3to1/4 1/4to2/4 2/4to2/3 2/3to1/3 1/3to1/2 1/2to1/1 1/1to2/1 2/1to2/2 2/2to1/2 1/2to0/2 0/2to0/3 0/3to0/4 0/4to1/4 1/4to1/3 1/3to1/2 1/2to1/1 1/1to1/0 1/0to2/0 2/0to3/0 3/0to3/1"/>
    </vehicle>
    <vehicle id="1" depart="1.00">
        <route edges="3/4to2/4 2/4to1/4 1/4to1/3 1/3to0/3 0/3to0/2 0/2to0/1 0/1to1/1 1/1to2/1 2/1to3/1 3/1to3/0 3/0to2/0 2/0to2/1 2/1to1/1 1/1to1/2 1/2to1/3 1/3to2/3 2/3to3/3 3/3to3/2 3/2to2/2 2/2to1/2 1/2to0/2 0/2to0/3"/>
    </vehicle>
    <vehicle id="2" depart="2.00">
        <route edges="1/4to1/3 1/3to1/2 1/2to2/2 2/2to3/2 3/2to4/2 4/2to4/3 4/3to3/3 3/3to2/3 2/3to2/2 2/2to1/2 1/2to1/3 1/3to2/3 2/3to3/3 3/3to4/3 4/3to4/2 4/2to3/2 3/2to2/2 2/2to2/3 2/3to3/3 3/3to3/4 3/4to2/4 2/4to1/4 1/4to0/4"/>
    </vehicle>
    <vehicle id="3" depart="3.00">
        <route edges="2/4to1/4 1/4to0/4 0/4to0/3 0/3to1/3 1/3to2/3 2/3to2/4 2/4to3/4 3/4to3/3 3/3to4/3 4/3to4/4 4/4to3/4 3/4to3/3 3/3to3/2 3/2to2/2 2/2to2/3 2/3to1/3 1/3to1/4 1/4to0/4 0/4to0/3"/>
    </vehicle>
    <vehicle id="4" depart="4.00">
        <route edges="1/0to0/0 0/0to0/1 0/1to1/1 1/1to2/1 2/1to3/1 3/1to3/2 3/2to2/2 2/2to2/3 2/3to1/3 1/3to1/4 1/4to2/4 2/4to2/3 2/3to3/3 3/3to3/4 3/4to2/4 2/4to1/4 1/4to1/3 1/3to1/2 1/2to2/2 2/2to3/2 3/2to4/2 4/2to4/1"/>
    </vehicle>
    <vehicle id="5" depart="5.00">
        <route edges="4/3to4/4 4/4to3/4 3/4to3/3 3/3to3/2 3/2to3/1 3/1to4/1 4/1to4/0 4/0to3/0 3/0to2/0 2/0to1/0 1/0to1/1 1/1to1/2 1/2to1/3 1/3to1/4 1/4to0/4 0/4to0/3 0/3to1/3 1/3to2/3 2/3to3/3 3/3to3/2 3/2to2/2 2/2to1/2 1/2to0/2 0/2to0/1 0/1to0/0 0/0to1/0 1/0to2/0 2/0to3/0 3/0to4/0 4/0to4/1"/>
    </vehicle>
    <vehicle id="6" depart="6.00">
        <route edges="2/2to3/2 3/2to3/1 3/1to2/1 2/1to2/0 2/0to1/0 1/0to1/1 1/1to1/2 1/2to1/3 1/3to2/3 2/3to3/3 3/3to3/2 3/2to4/2 4/2to4/3 4/3to3/3 3/3to2/3 2/3to1/3 1/3to1/2 1/2to1/1 1/1to2/1 2/1to3/1 3/1to4/1"/>
    </vehicle>
    <vehicle id="7" depart="7.00">
        <route edges="3/4to3/3 3/3to2/3 2/3to2/2 2/2to2/1 2/1to2/0 2/0to3/0 3/0to3/1 3/1to2/1 2/1to1/1 1/1to1/2 1/2to1/3 1/3to1/4 1/4to0/4 0/4to0/3 0/3to1/3 1/3to2/3 2/3to3/3 3/3to4/3 4/3to4/4 4/4to3/4 3/4to2/4 2/4to2/3 2/3to2/2 2/2to2/1 2/1to3/1 3/1to3/2 3/2to2/2 2/2to2/1 2/1to3/1 3/1to3/0"/>
    </vehicle>
    <vehicle id="8" depart="8.00">
        <route edges="1/3to1/2 1/2to2/2 2/2to3/2 3/2to3/3 3/3to2/3 2/3to1/3 1/3to0/3 0/3to0/2 0/2to0/1 0/1to0/0 0/0to1/0 1/0to1/1 1/1to1/2 1/2to0/2 0/2to0/1 0/1to1/1 1/1to2/1 2/1to2/2 2/2to1/2 1/2to1/1 1/1to1/0 1/0to2/0 2/0to3/0 3/0to3/1"/>
    </vehicle>
    <vehicle id="9" depart="9.00">
        <route edges="2/2to3/2 3/2to4/2 4/2to4/3 4/3to3/3 3/3to2/3 2/3to1/3 1/3to1/2 1/2to1/1 1/1to1/0 1/0to0/0 0/0to0/1 0/1to0/2 0/2to1/2 1/2to2/2 2/2to3/2 3/2to4/2 4/2to4/1 4/1to3/1 3/1to2/1 2/1to1/1 1/1to1/0 1/0to0/0 0/0to0/1 0/1to1/1 1/1to1/0 1/0to0/0"/>
    </vehicle>
    <vehicle id="10" depart="10.00">
        <route edges="4/0to4/1 4/1to3/1 3/1to2/1 2/1to1/1 1/1to1/2 1/2to1/3 1/3to2/3 2/3to3/3 3/3to3/2 3/2to3/1 3/1to4/1 4/1to4/2 4/2to3/2 3/2to2/2 2/2to1/2 1/2to0/2 0/2to0/3 0/3to0/4 0/4to1/4 1/4to1/3 1/3to1/2 1/2to1/1 1/1to1/0 1/0to2/0 2/0to3/0 3/0to3/1"/>
    </vehicle>
    <vehicle id="11" depart="11.00">
        <route edges="4/1to4/0 4/0to3/0 3/0to2/0 2/0to2/1 2/1to1/1 1/1to1/0 1/0to2/0 2/0to2/1 2/1to1/1 1/1to1/0 1/0to2/0 2/0to2/1 2/1to3/1 3/1to4/1 4/1to4/0 4/0to3/0 3/0to2/0 2/0to1/0 1/0to1/1"/>
    </vehicle>
    <vehicle id="12" depart="12.00">
        <route edges="1/1to2/1 2/1to2/0 2/0to1/0 1/0to0/0 0/0to0/1 0/1to1/1 1/1to1/0 1/0to0/0 0/0to0/1 0/1to0/2 0/2to0/3 0/3to1/3 1/3to1/4 1/4to2/4 2/4to2/3 2/3to1/3 1/3to1/2 1/2to0/2 0/2to0/3 0/3to1/3 1/3to1/2 1/2to1/1 1/1to2/1 2/1to3/1 3/1to4/1 4/1to4/0 4/0to3/0"/>
    </vehicle>
    <vehicle id="13" depart="13.00">
        <route edges="2/2to2/3 2/3to1/3 1/3to1/2 1/2to0/2 0/2to0/3 0/3to1/3 1/3to1/2 1/2to1/1 1/1to2/1 2/1to3/1 3/1to4/1 4/1to4/2 4/2to3/2 3/2to2/2 2/2to2/1 2/1to2/0 2/0to1/0 1/0to1/1 1/1to0/1 0/1to0/2 0/2to0/3 0/3to0/4 0/4to1/4 1/4to1/3 1/3to1/2 1/2to1/1 1/1to2/1 2/1to3/1 3/1to3/2"/>
    </vehicle>
    <vehicle id="14" depart="14.00">
        <route edges="4/1to4/2 4/2to3/2 3/2to2/2 2/2to1/2 1/2to1/3 1/3to0/3 0/3to0/2 0/2to0/1 0/1to1/1 1/1to2/1 2/1to3/1 3/1to4/1 4/1to4/0 4/0to3/0 3/0to3/1 3/1to2/1 2/1to1/1 1/1to1/2 1/2to1/3 1/3to2/3 2/3to2/2 2/2to3/2 3/2to3/1"/>
    </vehicle>
    <vehicle id="15" depart="15.00">
        <route edges="4/1to3/1 3/1to2/1 2/1to1/1 1/1to1/2 1/2to1/3 1/3to0/3 0/3to0/2 0/2to1/2 1/2to1/1 1/1to0/1 0/1to0/2 0/2to1/2 1/2to2/2 2/2to3/2 3/2to4/2 4/2to4/1 4/1to3/1 3/1to2/1 2/1to2/2 2/2to2/3 2/3to2/4 2/4to1/4 1/4to1/3 1/3to1/2 1/2to1/1 1/1to1/0 1/0to0/0 0/0to0/1"/>
    </vehicle>
    <vehicle id="16" depart="16.00">
        <route edges="2/1to2/2 2/2to2/3 2/3to2/4 2/4to1/4 1/4to0/4 0/4to0/3 0/3to1/3 1/3to1/2 1/2to0/2 0/2to0/3 0/3to0/4 0/4to1/4 1/4to1/3 1/3to1/2 1/2to1/1 1/1to2/1 2/1to2/2 2/2to2/3 2/3to3/3 3/3to3/4"/>
    </vehicle>
    <vehicle id="17" depart="17.00">
        <route edges="2/2to2/3 2/3to2/4 2/4to1/4 1/4to1/3 1/3to2/3 2/3to2/2 2/2to1/2 1/2to1/1 1/1to2/1 2/1to2/2 2/2to1/2 1/2to0/2 0/2to0/1 0/1to1/1 1/1to2/1 2/1to2/0 2/0to1/0 1/0to1/1 1/1to1/2 1/2to2/2 2/2to3/2 3/2to3/3"/>
    </vehicle>
    <vehicle id="18" depart="18.00">
        <route edges="1/4to2/4 2/4to3/4 3/4to3/3 3/3to2/3 2/3to1/3 1/3to1/4 1/4to2/4 2/4to2/3 2/3to2/2 2/2to1/2 1/2to1/3 1/3to2/3 2/3to2/4 2/4to1/4 1/4to1/3 1/3to2/3 2/3to3/3 3/3to3/2 3/2to3/1 3/1to4/1 4/1to4/0 4/0to3/0"/>
    </vehicle>
    <vehicle id="19" depart="19.00">
        <route edges="4/2to3/2 3/2to2/2 2/2to2/1 2/1to2/0 2/0to1/0 1/0to1/1 1/1to2/1 2/1to2/2 2/2to1/2 1/2to0/2 0/2to0/1 0/1to1/1 1/1to1/2 1/2to1/3 1/3to2/3 2/3to3/3 3/3to3/2 3/2to2/2 2/2to1/2 1/2to1/1 1/1to1/0"/>
    </vehicle>
    <vehicle id="20" depart="20.00">
        <route edges="1/2to0/2 0/2to0/1 0/1to1/1 1/1to1/0 1/0to2/0 2/0to2/1 2/1to1/1 1/1to1/2 1/2to1/3 1/3to2/3 2/3to2/2 2/2to1/2 1/2to0/2 0/2to0/1 0/1to0/0 0/0to1/0 1/0to2/0 2/0to3/0 3/0to4/0 4/0to4/1 4/1to3/1 3/1to2/1 2/1to1/1"/>
    </vehicle>
    <vehicle id="21" depart="21.00">
        <route edges="2/0to3/0 3/0to3/1 3/1to3/2 3/2to3/3 3/3to4/3 4/3to4/4 4/4to3/4 3/4to3/3 3/3to2/3 2/3to2/4 2/4to3/4 3/4to3/3 3/3to2/3 2/3to2/2 2/2to2/1 2/1to1/1 1/1to1/2 1/2to2/2 2/2to2/1 2/1to1/1 1/1to0/1 0/1to0/2 0/2to1/2 1/2to1/1 1/1to0/1"/>
    </vehicle>
    <vehicle id="22" depart="22.00">
        <route edges="3/1to4/1 4/1to4/2 4/2to3/2 3/2to3/1 3/1to2/1 2/1to2/2 2/2to3/2 3/2to3/1 3/1to2/1 2/1to1/1 1/1to1/0 1/0to2/0 2/0to2/1 2/1to3/1 3/1to4/1 4/1to4/2 4/2to3/2 3/2to2/2 2/2to2/1 2/1to2/0 2/0to1/0 1/0to1/1"/>
    </vehicle>
    <vehicle id="23" depart="23.00">
        <route edges="0/2to1/2 1/2to2/2 2/2to3/2 3/2to3/3 3/3to2/3 2/3to2/2 2/2to2/1 2/1to1/1 1/1to1/2 1/2to2/2 2/2to2/1 2/1to2/0 2/0to1/0 1/0to1/1 1/1to2/1 2/1to2/0 2/0to3/0 3/0to4/0 4/0to4/1 4/1to3/1 3/1to2/1 2/1to1/1 1/1to0/1 0/1to0/0 0/0to1/0"/>
    </vehicle>
    <vehicle id="24" depart="24.00">
        <route edges="1/1to1/2 1/2to1/3 1/3to1/4 1/4to0/4 0/4to0/3 0/3to0/2 0/2to0/1 0/1to1/1 1/1to1/0 1/0to0/0 0/0to0/1 0/1to0/2 0/2to1/2 1/2to1/3 1/3to2/3 2/3to2/4 2/4to1/4 1/4to1/3 1/3to1/2 1/2to2/2 2/2to3/2 3/2to3/3"/>
    </vehicle>
    <vehicle id="25" depart="25.00">
        <route edges="0/0to1/0 1/0to1/1 1/1to1/2 1/2to1/3 1/3to2/3 2/3to3/3 3/3to4/3 4/3to4/2 4/2to3/2 3/2to2/2 2/2to2/3 2/3to1/3 1/3to1/2 1/2to1/1 1/1to2/1 2/1to3/1 3/1to4/1 4/1to4/2 4/2to3/2 3/2to3/1 3/1to3/0 3/0to4/0 4/0to4/1 4/1to3/1 3/1to2/1 2/1to1/1 1/1to0/1"/>
    </vehicle>
    <vehicle id="26" depart="26.00">
        <route edges="3/3to4/3 4/3to4/2 4/2to3/2 3/2to2/2 2/2to1/2 1/2to0/2 0/2to0/3 0/3to0/4 0/4to1/4 1/4to1/3 1/3to0/3 0/3to0/2 0/2to1/2 1/2to1/1 1/1to0/1 0/1to0/2 0/2to0/3 0/3to1/3 1/3to2/3 2/3to3/3 3/3to3/2 3/2to2/2 2/2to1/2 1/2to0/2 0/2to0/1"/>
    </vehicle>
    <vehicle id="27" depart="27.00">
        <route edges="2/1to2/2 2/2to3/2 3/2to3/1 3/1to3/0 3/0to4/0 4/0to4/1 4/1to4/2 4/2to4/3 4/3to3/3 3/3to2/3 2/3to2/2 2/2to3/2 3/2to3/3 3/3to2/3 2/3to2/2 2/2to3/2 3/2to4/2 4/2to4/1 4/1to3/1 3/1to2/1 2/1to1/1 1/1to0/1 0/1to0/0 0/0to1/0"/>
    </vehicle>
    <vehicle id="28" depart="28.00">
        <route edges="3/0to2/0 2/0to2/1 2/1to2/2 2/2to3/2 3/2to3/1 3/1to2/1 2/1to2/2 2/2to3/2 3/2to4/2 4/2to4/1 4/1to3/1 3/1to3/2 3/2to3/3 3/3to3/4 3/4to4/4 4/4to4/3 4/3to3/3 3/3to3/2 3/2to2/2 2/2to2/3 2/3to3/3 3/3to3/4 3/4to2/4 2/4to1/4 1/4to1/3"/>
    </vehicle>
    <vehicle id="29" depart="29.00">
        <route edges="0/2to0/3 0/3to1/3 1/3to1/2 1/2to2/2 2/2to3/2 3/2to4/2 4/2to4/1 4/1to3/1 3/1to2/1 2/1to1/1 1/1to0/1 0/1to0/0 0/0to1/0 1/0to1/1 1/1to1/2 1/2to0/2 0/2to0/1 0/1to1/1 1/1to1/2 1/2to1/3 1/3to0/3 0/3to0/2"/>
    </vehicle>
    <vehicle id="30" depart="30.00">
        <route edges="2/2to2/3 2/3to1/3 1/3to1/2 1/2to1/1 1/1to1/0 1/0to0/0 0/0to0/1 0/1to0/2 0/2to0/3 0/3to1/3 1/3to2/3 2/3to2/4 2/4to1/4 1/4to1/3 1/3to1/2 1/2to1/1 1/1to0/1 0/1to0/2 0/2to1/2 1/2to1/1 1/1to1/0 1/0to2/0 2/0to2/1 2/1to2/2 2/2to2/3 2/3to3/3 3/3to4/3"/>
    </vehicle>
    <vehicle id="31" depart="31.00">
        <route edges="1/4to0/4 0/4to0/3 0/3to0/2 0/2to1/2 1/2to2/2 2/2to2/3 2/3to3/3 3/3to3/2 3/2to3/1 3/1to4/1 4/1to4/0 4/0to3/0 3/0to3/1 3/1to3/2 3/2to3/3 3/3to3/4 3/4to4/4 4/4to4/3 4/3to4/2 4/2to4/1 4/1to4/0 4/0to3/0 3/0to3/1 3/1to2/1 2/1to2/2 2/2to2/3 2/3to1/3"/>
    </vehicle>
    <vehicle id="32" depart="32.00">
        <route edges="0/3to1/3 1/3to1/4 1/4to2/4 2/4to2/3 2/3to1/3 1/3to1/4 1/4to2/4 2/4to3/4 3/4to3/3 3/3to2/3 2/3to1/3 1/3to1/4 1/4to2/4 2/4to2/3 2/3to2/2 2/2to2/1 2/1to1/1 1/1to1/2 1/2to2/2 2/2to3/2 3/2to3/1"/>
    </vehicle>
    <vehicle id="33" depart="33.00">
        <route edges="3/2to3/1 3/1to4/1 4/1to4/0 4/0to3/0 3/0to3/1 3/1to4/1 4/1to4/0 4/0to3/0 3/0to2/0 2/0to2/1 2/1to2/2 2/2to2/3 2/3to2/4 2/4to1/4 1/4to1/3 1/3to1/2 1/2to0/2 0/2to0/3 0/3to1/3 1/3to1/2 1/2to1/1 1/1to2/1 2/1to2/2"/>
    </vehicle>
    <vehicle id="34" depart="34.00">
        <route edges="1/1to2/1 2/1to2/2 2/2to2/3 2/3to2/4 2/4to3/4 3/4to3/3 3/3to2/3 2/3to1/3 1/3to0/3 0/3to0/2 0/2to1/2 1/2to1/3 1/3to1/4 1/4to2/4 2/4to2/3 2/3to1/3 1/3to1/2 1/2to1/1 1/1to1/0 1/0to0/0 0/0to0/1"/>
    </vehicle>
    <vehicle id="35" depart="35.00">
        <route edges="2/2to2/3 2/3to1/3 1/3to1/2 1/2to1/1 1/1to2/1 2/1to3/1 3/1to3/2 3/2to4/2 4/2to4/1 4/1to3/1 3/1to2/1 2/1to1/1 1/1to1/0 1/0to0/0 0/0to0/1 0/1to0/2 0/2to0/3 0/3to1/3 1/3to1/4 1/4to2/4 2/4to2/3 2/3to2/2 2/2to2/1 2/1to2/0 2/0to3/0 3/0to3/1"/>
    </vehicle>
    <vehicle id="36" depart="36.00">
        <route edges="1/2to1/1 1/1to0/1 0/1to0/2 0/2to0/3 0/3to1/3 1/3to1/4 1/4to2/4 2/4to2/3 2/3to2/2 2/2to3/2 3/2to4/2 4/2to4/1 4/1to3/1 3/1to2/1 2/1to1/1 1/1to0/1 0/1to0/2 0/2to0/3 0/3to0/4 0/4to1/4 1/4to1/3 1/3to1/2 1/2to1/1 1/1to2/1 2/1to2/2 2/2to1/2 1/2to0/2 0/2to0/1"/>
    </vehicle>
    <vehicle id="37" depart="37.00">
        <route edges="0/3to0/2 0/2to0/1 0/1to1/1 1/1to1/0 1/0to0/0 0/0to0/1 0/1to1/1 1/1to2/1 2/1to3/1 3/1to3/0 3/0to2/0 2/0to2/1 2/1to3/1 3/1to4/1 4/1to4/2 4/2to3/2 3/2to2/2 2/2to1/2 1/2to1/3 1/3to0/3 0/3to0/2 0/2to1/2 1/2to1/3 1/3to2/3 2/3to3/3 3/3to4/3 4/3to4/4"/>
    </vehicle>
    <vehicle id="38" depart="38.00">
        <route edges="2/3to2/4 2/4to3/4 3/4to3/3 3/3to2/3 2/3to1/3 1/3to1/2 1/2to2/2 2/2to2/3 2/3to3/3 3/3to4/3 4/3to4/4 4/4to3/4 3/4to2/4 2/4to2/3 2/3to2/2 2/2to2/1 2/1to1/1 1/1to0/1 0/1to0/2 0/2to0/3 0/3to1/3 1/3to1/2 1/2to2/2 2/2to2/1 2/1to1/1"/>
    </vehicle>
    <vehicle id="39" depart="39.00">
        <route edges="4/2to4/3 4/3to3/3 3/3to2/3 2/3to1/3 1/3to1/2 1/2to1/1 1/1to0/1 0/1to0/2 0/2to1/2 1/2to1/1 1/1to2/1 2/1to3/1 3/1to4/1 4/1to4/2 4/2to3/2 3/2to2/2 2/2to1/2 1/2to0/2 0/2to0/1 0/1to0/0 0/0to1/0 1/0to1/1 1/1to1/2 1/2to2/2 2/2to3/2 3/2to3/3 3/3to2/3 2/3to2/2 2/2to1/2 1/2to1/3"/>
    </vehicle>
</routes>
